version 2
run Mysterio_ex1-0-20211101-15:54:34-3412
attr configname Mysterio_ex1
attr datetime 20211101-15:54:34
attr experiment Mysterio_ex1
attr inifile omnetpp.ini
attr iterationvars ""
attr iterationvarsf ""
attr measurement ""
attr network MysterioCommunication2
attr processid 3412
attr repetition 0
attr replication #0
attr resultdir results
attr runnumber 0
attr seedset 0
param *.host[*].mobility.numeroDrones 2
param *.numHosts 2
param *.host[*].osgModel "\"3d/drone.ive.100.scale.0,0,90.rot\""
param *.basestation.osgModel "\"3d/car.ive.50.scale.0,0,90.rot\""
param *.canvasVisualizer.energyStorageVisualizer.displayEnergyStorages true
param *.host[*].hasStatus true
param *.host[*].energyStorage.typename "\"SimpleEpEnergyStorage\""
param *.host[*].wlan[*].radio.energyConsumer.typename "\"StateBasedEpEnergyConsumer\""
param *.host[*].energyManagement.typename "\"SimpleEpEnergyManagement\""
param *.host[*].energyStorage.nominalCapacity 0.05J
param *.host[*].energyManagement.nodeShutdownCapacity "0.1 * energyStorage.nominalCapacity"
param *.host[*].energyManagement.nodeStartCapacity "0.5 * energyStorage.nominalCapacity"
param *.host[*].energyStorage.initialCapacity 0.05J
param *.host[*].energyGenerator.typename "\"AlternatingEpEnergyGenerator\""
param *.host[*].energyGenerator.powerGeneration 4mW
param *.host[*].energyGenerator.sleepInterval exponential(25s)
param *.host[*].energyGenerator.generationInterval exponential(25s)
param *.host[*].mobility.typename "\"UAVMobility\""
param *.host[*].mobility.changeInterval 1s
param *.host[*].mobility.initialMovementHeading "uniform(0deg, 360deg)"
param *.host[*].mobility.initialMovementElevation "uniform(-90deg, 90deg)"
param *.host[*].mobility.angleDelta uniform(-10deg,10deg)
param *.host[*].mobility.rotationAxisAngle uniform(-10deg,10deg)
param *.host[*].mobility.speed uniform(10mps,20mps)
param *.host[*].mobility.faceForward false
param *.host[*].mobility.initialX 220m
param *.host[*].mobility.initialY 220m
param *.host[*].mobility.initialZ 80m
param *.visualizer.osgVisualizer.typename "\"IntegratedOsgVisualizer\""
param *.visualizer.osgVisualizer.sceneVisualizer.clearColor "\"skyblue\""
param *.visualizer.osgVisualizer.sceneVisualizer.sceneImage "\"showcases/desert\""
param *.visualizer.osgVisualizer.sceneVisualizer.sceneImageSize 5000m
param *.visualizer.osgVisualizer.sceneVisualizer.axisLength 1000m
param *.visualizer.osgVisualizer.sceneVisualizer.sceneMinX -2000m
param *.visualizer.osgVisualizer.sceneVisualizer.sceneMinY -2000m
param *.visualizer.osgVisualizer.sceneVisualizer.sceneMinZ 0m
param *.visualizer.osgVisualizer.sceneVisualizer.sceneMaxX 3000m
param *.visualizer.osgVisualizer.sceneVisualizer.sceneMaxY 3000m
param *.visualizer.osgVisualizer.sceneVisualizer.sceneMaxZ 1000m
param *.visualizer.osgVisualizer.networkNodeVisualizer.displayModuleName false
param *.visualizer.*.mobilityVisualizer.displayMobility true
param *.visualizer.*.mobilityVisualizer.displayPositions true
param *.visualizer.*.mobilityVisualizer.displayOrientations false
param *.visualizer.*.mobilityVisualizer.displayVelocities true
param *.visualizer.*.mobilityVisualizer.displayMovementTrails true
param *.visualizer.*.mobilityVisualizer.animationSpeed 3
param **.constraintAreaMinX 0m
param **.constraintAreaMinY 0m
param **.constraintAreaMinZ 0m
param **.constraintAreaMaxX 1000m
param **.constraintAreaMaxY 1000m
param **.constraintAreaMaxZ 1000m
param **.networkConfiguratorModule "\"\""

vector 0 MysterioCommunication2.host[0].energyStorage residualEnergyCapacity:vector ETV
attr interpolationmode linear
attr source residualEnergyCapacityChanged
attr title "Residual energy capacity, vector"
vector 1 MysterioCommunication2.host[0].energyGenerator powerGeneration:vector ETV
attr interpolationmode sample-hold
attr source powerGenerationChanged
attr title "Power generation, vector"
vector 2 MysterioCommunication2.host[1].energyStorage residualEnergyCapacity:vector ETV
attr interpolationmode linear
attr source residualEnergyCapacityChanged
attr title "Residual energy capacity, vector"
vector 3 MysterioCommunication2.host[1].energyGenerator powerGeneration:vector ETV
attr interpolationmode sample-hold
attr source powerGenerationChanged
attr title "Power generation, vector"
vector 4 MysterioCommunication2.host[0].energyStorage powerGeneration:vector ETV
attr interpolationmode sample-hold
attr source powerGenerationChanged
attr title "Power generation, vector"
vector 5 MysterioCommunication2.host[1].energyStorage powerGeneration:vector ETV
attr interpolationmode sample-hold
attr source powerGenerationChanged
attr title "Power generation, vector"
0	0	0	0.05
0	0	0.1	0.05
0	2	0.118084633	0.05
0	3	0.2	0.05
0	4	0.211185049	0.05
0	5	0.3	0.05
0	6	0.32089834	0.05
0	7	0.4	0.05
0	8	0.439713667	0.05
0	9	0.5	0.05
0	10	0.55070221	0.05
0	11	0.6	0.05
0	12	0.664871623	0.05
0	13	0.7	0.05
0	14	0.776889802	0.05
0	15	0.8	0.05
0	16	0.869234224	0.05
0	17	0.9	0.05
0	18	0.976261027	0.05
0	19	1	0.05
0	21	1.1	0.05
0	22	1.123738096	0.05
0	23	1.2	0.05
0	25	1.3	0.05
0	26	1.30208335	0.05
0	27	1.4	0.05
0	28	1.45615015	0.05
0	29	1.5	0.05
0	31	1.6	0.05
0	32	1.616086957	0.05
0	32	1.692923629	0.05
0	33	1.7	0.05
0	34	1.784062606	0.05
0	35	1.8	0.05
0	37	1.9	0.05
0	38	1.928136889	0.05
0	39	2	0.05
0	40	2.032177687	0.05
0	41	2.1	0.05
0	42	2.144322208	0.05
0	43	2.2	0.05
0	44	2.264670892	0.05
0	45	2.3	0.05
0	47	2.4	0.05
0	48	2.42485117	0.05
0	49	2.5	0.05
0	50	2.54720638	0.05
0	51	2.6	0.05
0	52	2.67047776	0.05
0	53	2.7	0.05
0	54	2.763401068	0.05
0	55	2.8	0.05
0	56	2.834843143	0.05
0	57	2.9	0.05
0	58	2.906020234	0.05
0	58	2.992815337	0.05
0	59	3	0.05
0	60	3.05824891	0.05
0	61	3.1	0.05
0	63	3.2	0.05
0	64	3.236744179	0.05
0	65	3.3	0.05
0	66	3.398518063	0.05
0	67	3.4	0.05
0	69	3.5	0.05
0	70	3.520625974	0.05
0	71	3.6	0.05
0	73	3.7	0.05
0	74	3.709797382	0.05
0	75	3.8	0.05
0	76	3.848391679	0.05
0	77	3.9	0.05
0	78	3.995965939	0.05
0	79	4	0.05
0	81	4.1	0.05
0	82	4.116861319	0.05
0	83	4.2	0.05
0	84	4.240118002	0.05
0	85	4.3	0.05
0	86	4.362678691	0.05
0	87	4.4	0.05
0	89	4.5	0.05
0	90	4.513188775	0.05
0	91	4.6	0.05
0	92	4.621773592	0.05
0	93	4.7	0.05
0	94	4.727754412	0.05
0	95	4.8	0.05
0	96	4.803752701	0.05
0	97	4.9	0.05
0	98	4.911003592	0.05
0	98	4.985270884	0.05
0	99	5	0.05
0	100	5.08770835	0.05
0	101	5.1	0.05
0	102	5.164801408	0.05
0	103	5.2	0.05
0	104	5.271862267	0.05
0	105	5.3	0.05
0	106	5.349335329	0.05
0	107	5.4	0.05
0	108	5.456203495	0.05
0	109	5.5	0.05
0	110	5.532728782	0.05
0	111	5.6	0.05
0	112	5.641851703	0.05
0	113	5.7	0.05
0	114	5.752188196	0.05
0	115	5.8	0.05
0	116	5.892376	0.05
0	117	5.9	0.05
0	119	6	0.05
0	120	6.005931901	0.05
0	121	6.1	0.05
0	122	6.137163886	0.05
0	123	6.2	0.05
0	124	6.215250514	0.05
0	125	6.3	0.05
0	126	6.303742042	0.05
0	127	6.4	0.05
0	128	6.424077571	0.05
0	129	6.5	0.05
0	130	6.534231202	0.05
0	131	6.6	0.05
0	132	6.64042288	0.05
0	133	6.7	0.05
0	134	6.76921492	0.05
0	135	6.8	0.05
0	136	6.893400634	0.05
0	137	6.9	0.05
0	138	6.985275451	0.05
0	139	7	0.05
0	141	7.1	0.05
0	142	7.132369534	0.05
0	143	7.2	0.05
0	144	7.297929631	0.05
0	145	7.3	0.05
0	147	7.4	0.05
0	148	7.462866481	0.05
0	149	7.5	0.05
0	151	7.6	0.05
0	152	7.63156417	0.05
0	153	7.7	0.05
0	154	7.795343218	0.05
0	155	7.8	0.05
0	157	7.9	0.05
0	158	7.925742673	0.05
0	159	8	0.05
0	161	8.1	0.05
0	162	8.103189079	0.05
0	163	8.2	0.05
0	164	8.235288352	0.05
0	165	8.3	0.05
0	166	8.388722707	0.05
0	167	8.4	0.05
0	169	8.5	0.05
0	170	8.525819698	0.05
0	171	8.6	0.05
0	172	8.631140032	0.05
0	173	8.7	0.05
0	174	8.715501601	0.05
0	175	8.8	0.05
0	176	8.880881611	0.05
0	177	8.9	0.05
0	179	9	0.05
0	180	9.054099649	0.05
0	181	9.1	0.05
0	182	9.137850283	0.05
0	183	9.2	0.05
0	184	9.258698266	0.05
0	185	9.3	0.05
0	187	9.4	0.05
0	188	9.472141324	0.05
0	189	9.5	0.05
0	191	9.6	0.05
0	192	9.626940151	0.05
0	193	9.7	0.05
0	194	9.717530437	0.05
0	195	9.8	0.05
0	196	9.830752372	0.05
0	197	9.9	0.05
0	198	9.976093588	0.05
0	199	10	0.05
0	201	10.1	0.05
0	202	10.145557879	0.05
0	203	10.2	0.05
0	204	10.29248887	0.05
0	205	10.3	0.05
0	207	10.4	0.05
0	208	10.44940738	0.05
0	209	10.5	0.05
0	210	10.59553456	0.05
0	211	10.6	0.05
0	213	10.7	0.05
0	214	10.748773474	0.05
0	215	10.8	0.05
0	217	10.9	0.05
0	218	10.955755813	0.05
0	219	11	0.05
0	221	11.1	0.05
0	222	11.118086191	0.05
0	222	11.196986962	0.05
0	223	11.2	0.05
0	225	11.3	0.05
0	226	11.35824376	0.05
0	227	11.4	0.05
0	229	11.5	0.05
0	230	11.501026696	0.05
0	231	11.6	0.05
0	232	11.656374394	0.05
0	233	11.7	0.05
0	235	11.8	0.05
0	236	11.817368569	0.05
0	237	11.9	0.05
0	238	11.988325042	0.05
0	239	12	0.05
0	240	12.086550454	0.05
0	241	12.1	0.05
0	243	12.2	0.05
0	244	12.257397529	0.05
0	245	12.3	0.05
0	246	12.368085052	0.05
0	247	12.4	0.05
0	249	12.5	0.05
0	250	12.516890371	0.05
0	251	12.6	0.05
0	252	12.673962607	0.05
0	253	12.7	0.05
0	255	12.8	0.05
0	256	12.845016286	0.05
0	257	12.9	0.05
0	259	13	0.05
0	260	13.030219996	0.05
0	261	13.1	0.05
0	262	13.168861507	0.05
0	263	13.2	0.05
0	265	13.3	0.05
0	266	13.322419621	0.05
0	267	13.4	0.05
0	268	13.456987519	0.05
0	269	13.5	0.05
0	271	13.6	0.05
0	272	13.601723626	0.05
0	273	13.7	0.05
0	274	13.757600188	0.05
0	275	13.8	0.05
0	277	13.9	0.05
0	278	13.913180749	0.05
0	279	14	0.05
0	280	14.098425244	0.05
0	281	14.1	0.05
0	283	14.2	0.05
0	284	14.238912967	0.05
0	285	14.3	0.05
0	286	14.355888484	0.05
0	287	14.4	0.05
0	289	14.5	0.05
0	290	14.541805927	0.05
0	291	14.6	0.05
0	292	14.688957151	0.05
0	293	14.7	0.05
0	295	14.8	0.05
0	296	14.827901452	0.05
0	297	14.9	0.05
0	299	15	0.05
0	300	15.030106327	0.05
0	301	15.1	0.05
0	303	15.2	0.05
0	304	15.238033741	0.05
0	305	15.3	0.05
0	307	15.4	0.05
0	308	15.462609844	0.05
0	309	15.5	0.05
0	311	15.6	0.05
0	312	15.643721374	0.05
0	313	15.7	0.05
0	315	15.8	0.05
0	316	15.835801324	0.05
0	317	15.9	0.05
0	318	15.965449768	0.05
0	319	16	0.05
0	321	16.1	0.05
0	323	16.2	0.05
0	324	16.218239452	0.05
0	325	16.3	0.05
0	327	16.4	0.05
0	328	16.404586531	0.05
0	329	16.5	0.05
0	330	16.579378558	0.05
0	331	16.6	0.05
0	333	16.7	0.05
0	335	16.8	0.05
0	336	16.803234043	0.05
0	337	16.9	0.05
0	339	17	0.05
0	340	17.028613594	0.05
0	341	17.1	0.05
0	343	17.2	0.05
0	344	17.234001235	0.05
0	345	17.3	0.05
0	347	17.4	0.05
0	348	17.433603805	0.05
0	349	17.5	0.05
0	351	17.6	0.05
0	352	17.636592991	0.05
0	353	17.7	0.05
0	355	17.8	0.05
0	356	17.866763152	0.05
0	357	17.9	0.05
0	359	18	0.05
0	360	18.06624604	0.05
0	361	18.1	0.05
0	363	18.2	0.05
0	364	18.296952301	0.05
0	365	18.3	0.05
0	367	18.4	0.05
0	369	18.5	0.05
0	370	18.512012497	0.05
0	371	18.6	0.05
0	373	18.7	0.05
0	374	18.766593163	0.05
0	375	18.8	0.05
0	377	18.9	0.05
0	378	18.988936438	0.05
0	379	19	0.05
0	381	19.1	0.05
0	382	19.136729728	0.05
0	383	19.2	0.05
0	384	19.273210543	0.05
0	385	19.3	0.05
0	387	19.4	0.05
0	388	19.445726461	0.05
0	389	19.5	0.05
0	391	19.6	0.05
0	392	19.629976483	0.05
0	393	19.7	0.05
0	395	19.8	0.05
0	396	19.80246724	0.05
0	397	19.9	0.05
0	398	19.984812442	0.05
0	399	20	0.05
0	401	20.1	0.05
0	402	20.166920845	0.05
0	403	20.2	0.05
0	405	20.3	0.05
0	406	20.345011639	0.05
0	407	20.4	0.05
0	409	20.5	0.05
0	410	20.511698263	0.05
0	411	20.6	0.05
0	412	20.695650502	0.05
0	413	20.7	0.05
0	415	20.8	0.05
0	416	20.830666252	0.05
0	417	20.9	0.05
0	418	20.989370869	0.05
0	419	21	0.05
0	421	21.1	0.05
0	422	21.173172109	0.05
0	423	21.2	0.05
0	424	21.298432456	0.05
0	425	21.3	0.05
0	427	21.4	0.05
0	428	21.462254218	0.05
0	429	21.5	0.05
0	430	21.571110982	0.05
0	431	21.6	0.05
0	433	21.7	0.05
0	434	21.713575879	0.05
0	435	21.8	0.05
0	436	21.861411193	0.05
0	437	21.9	0.05
0	438	21.96693559	0.05
0	439	22	0.05
0	441	22.1	0.05
0	442	22.108518634	0.05
0	443	22.2	0.05
0	444	22.2319744	0.05
0	445	22.3	0.05
0	446	22.384705972	0.05
0	447	22.4	0.05
0	449	22.5	0.05
0	450	22.541420254	0.05
0	451	22.6	0.05
0	452	22.678093309	0.05
0	453	22.7	0.05
0	455	22.8	0.05
0	456	22.821161689	0.05
0	457	22.9	0.05
0	458	22.98023662	0.05
0	459	23	0.05
0	461	23.08057828677	0.05
0	462	23.1	0.05
0	463	23.130746035	0.05
0	464	23.2	0.05
0	465	23.262651022	0.05
0	466	23.3	0.05
0	468	23.4	0.05
0	469	23.405854267	0.05
0	470	23.5	0.05
0	471	23.511103294	0.05
0	471	23.595670963	0.05
0	472	23.6	0.05
0	474	23.7	0.05
0	475	23.706198424	0.05
0	475	23.789620078	0.05
0	476	23.8	0.05
0	478	23.9	0.05
0	479	23.9549044	0.0495
0	479	23.9549044	0.0495
0	480	24	0.0495
0	482	24.1	0.0495
0	483	24.101053894	0.0495
0	484	24.2	0.0495
0	485	24.256055365	0.0495
0	486	24.3	0.0495
0	487	24.396880708	0.0495
0	488	24.4	0.0495
0	490	24.5	0.0495
0	491	24.553538215	0.0495
0	492	24.6	0.0495
0	494	24.7	0.0495
0	495	24.728872576	0.0495
0	496	24.8	0.0495
0	497	24.856952971	0.0495
0	498	24.9	0.0495
0	499	24.989740255	0.049005
0	499	24.989740255	0.049005
0	500	25	0.049005
0	502	25.1	0.049005
0	503	25.146411916	0.049005
0	504	25.2	0.049005
0	505	25.275753337	0.049005
0	506	25.3	0.049005
0	508	25.4	0.049005
0	509	25.48779832	0.049005
0	510	25.5	0.049005
0	512	25.6	0.049005
0	513	25.647838543	0.049005
0	514	25.7	0.049005
0	515	25.789630567	0.049005
0	516	25.8	0.049005
0	518	25.9	0.049005
0	519	25.928573974	0.049005
0	520	26	0.04851495
0	520	26	0.04851495
0	521	26.014539598	0.04851495
0	522	26.1	0.04851495
0	524	26.2	0.04851495
0	525	26.208978172	0.04851495
0	526	26.3	0.04851495
0	527	26.356329835	0.04851495
0	528	26.4	0.04851495
0	530	26.5	0.04851495
0	531	26.539810354	0.04851495
0	532	26.6	0.04851495
0	533	26.655930169	0.04851495
0	534	26.7	0.04851495
0	535	26.797286593	0.04851495
0	536	26.8	0.04851495
0	538	26.9	0.04851495
0	539	26.956818253	0.04851495
0	540	27	0.0480298005
0	540	27	0.0480298005
0	541	27.091553692	0.0480298005
0	542	27.1	0.0480298005
0	544	27.2	0.0480298005
0	545	27.269327101	0.0480298005
0	546	27.3	0.0480298005
0	547	27.355685503	0.0480298005
0	548	27.4	0.0480298005
0	550	27.5	0.0480298005
0	551	27.509383921	0.0480298005
0	552	27.6	0.0480298005
0	553	27.65521639	0.0480298005
0	554	27.7	0.0480298005
0	556	27.8	0.0480298005
0	557	27.847817356	0.0480298005
0	558	27.9	0.0480298005
0	560	28	0.0480298005
0	561	28.013226676	0.047549502495
0	561	28.013226676	0.047549502495
0	562	28.1	0.047549502495
0	563	28.136659477	0.047549502495
0	564	28.2	0.047549502495
0	565	28.28156089	0.047549502495
0	566	28.3	0.047549502495
0	568	28.4	0.047549502495
0	570	28.5	0.047549502495
0	571	28.506615835	0.047549502495
0	572	28.6	0.047549502495
0	573	28.622595988	0.047549502495
0	574	28.7	0.047549502495
0	575	28.712368009	0.047549502495
0	576	28.8	0.047549502495
0	577	28.889697208	0.047549502495
0	578	28.9	0.047549502495
0	580	29	0.047549502495
0	581	29.054702308	0.04707400747005
0	581	29.054702308	0.04707400747005
0	582	29.1	0.04707400747005
0	584	29.2	0.04707400747005
0	585	29.21074354	0.04707400747005
0	586	29.3	0.04707400747005
0	588	29.329348703014	0.04707400747005
0	588	29.346717697	0.047143483445994
0	589	29.4	0.047356612657994
0	591	29.435846835501	0.0475
0	592	29.5	0.047756612657996
0	593	29.532410716	0.047886255521996
0	594	29.560846835501	0.048
0	595	29.6	0.048156612657996
0	597	29.685846835501	0.0485
0	598	29.7	0.048556612657996
0	599	29.719693189	0.048635385413996
0	600	29.8	0.048956612657996
0	602	29.810846835501	0.049
0	602	29.885576776	0.049298919761996
0	603	29.9	0.049356612657996
0	605	29.935846835501	0.0495
0	606	30	0.049756612657996
0	607	30.056091043	0.049980976829996
0	608	30.060846835501	0.05
0	609	30.1	0.05
0	611	30.2	0.05
0	612	30.269790664	0.05
0	613	30.3	0.05
0	615	30.4	0.05
0	616	30.452420212	0.05
0	617	30.5	0.05
0	619	30.6	0.05
0	620	30.626651293	0.05
0	621	30.7	0.05
0	622	30.798897133	0.05
0	623	30.8	0.05
0	625	30.9	0.05
0	626	30.949148578	0.05
0	627	31	0.05
0	628	31.082181376	0.05
0	629	31.1	0.05
0	631	31.2	0.05
0	632	31.278936667	0.05
0	633	31.3	0.05
0	635	31.4	0.05
0	636	31.468764973	0.05
0	637	31.5	0.05
0	638	31.57453327	0.05
0	639	31.6	0.05
0	640	31.659955789	0.05
0	641	31.7	0.05
0	642	31.781929429	0.05
0	643	31.8	0.05
0	645	31.9	0.05
0	646	31.900988119	0.05
0	647	32	0.05
0	648	32.062907161	0.05
0	649	32.1	0.05
0	650	32.198772283	0.05
0	651	32.2	0.05
0	653	32.3	0.05
0	654	32.357833693	0.05
0	655	32.4	0.05
0	656	32.484450145	0.05
0	657	32.5	0.05
0	659	32.6	0.05
0	660	32.651229889	0.05
0	661	32.7	0.05
0	662	32.773184083	0.05
0	663	32.8	0.05
0	664	32.860099201	0.05
0	665	32.9	0.05
0	667	33	0.05
0	668	33.014121085	0.05
0	669	33.1	0.05
0	671	33.2	0.05
0	672	33.206305378	0.05
0	673	33.3	0.05
0	675	33.341451386968	0.05
0	675	33.354032791	0.05
0	676	33.4	0.05
0	678	33.5	0.05
0	679	33.507220417	0.05
0	680	33.6	0.05
0	682	33.7	0.05
0	683	33.759067132	0.05
0	684	33.8	0.05
0	686	33.9	0.05
0	687	33.947913277	0.05
0	688	34	0.0495
0	688	34	0.0495
0	689	34.077080431	0.0495
0	690	34.1	0.0495
0	692	34.2	0.0495
0	693	34.215923128	0.0495
0	694	34.3	0.0495
0	696	34.4	0.0495
0	698	34.5	0.0495
0	699	34.534205587	0.0495
0	700	34.6	0.0495
0	701	34.672471849	0.0495
0	702	34.7	0.0495
0	704	34.8	0.0495
0	705	34.803099718	0.0495
0	706	34.886855103173	0.0495
0	707	34.9	0.049552579587308
0	708	34.949308354	0.049749813003308
0	709	35	0.049952579587308
0	711	35.011855103173	0.05
0	712	35.1	0.05
0	713	35.10457966	0.05
0	714	35.2	0.05
0	715	35.272783273	0.05
0	716	35.3	0.05
0	718	35.4	0.05
0	719	35.478696454	0.05
0	720	35.5	0.05
0	721	35.59291819	0.05
0	722	35.6	0.05
0	723	35.694868897	0.05
0	724	35.7	0.05
0	726	35.8	0.05
0	727	35.814894448	0.05
0	728	35.9	0.05
0	729	35.945611891	0.05
0	730	36	0.0495
0	730	36	0.0495
0	732	36.1	0.0499
0	733	36.125361658	0.05
0	734	36.2	0.05
0	735	36.282558133	0.05
0	736	36.3	0.05
0	738	36.4	0.05
0	739	36.447202711	0.05
0	740	36.5	0.05
0	741	36.591685819	0.05
0	742	36.6	0.05
0	744	36.7	0.05
0	745	36.724928962	0.05
0	746	36.8	0.05
0	747	36.884900923	0.05
0	748	36.9	0.05
0	750	37	0.05
0	751	37.02485179	0.0495
0	751	37.02485179	0.0495
0	752	37.1	0.04980059284
0	753	37.168534681	0.05
0	754	37.2	0.05
0	755	37.28041858	0.05
0	756	37.3	0.05
0	757	37.364949814	0.05
0	758	37.4	0.05
0	759	37.473633256	0.05
0	760	37.5	0.05
0	761	37.563042133	0.05
0	762	37.6	0.05
0	763	37.681653259	0.05
0	764	37.7	0.05
0	765	37.78783375	0.05
0	766	37.8	0.05
0	767	37.882180549	0.05
0	768	37.9	0.0495
0	768	37.9	0.0495
0	769	37.987195747	0.049848782988
0	770	38	0.0499
0	771	38.076835852	0.05
0	772	38.1	0.05
0	774	38.2	0.05
0	775	38.209693804	0.05
0	776	38.3	0.05
0	778	38.4	0.05
0	779	38.405904985	0.05
0	780	38.5	0.05
0	781	38.581236958	0.05
0	782	38.6	0.05
0	784	38.7	0.05
0	785	38.767960534	0.05
0	786	38.8	0.05
0	788	38.9	0.05
0	789	38.915417938	0.0495
0	789	38.915417938	0.0495
0	790	39	0.049838328248
0	792	39.1	0.05
0	793	39.151573318	0.05
0	794	39.2	0.05
0	796	39.3	0.05
0	797	39.324861307	0.05
0	798	39.4	0.05
0	800	39.5	0.05
0	801	39.584270287	0.05
0	802	39.6	0.05
0	804	39.7	0.05
0	805	39.775735903	0.05
0	806	39.8	0.05
0	808	39.9	0.05
0	809	39.946431556	0.05
0	810	40	0.05
0	812	40.1	0.0495
0	812	40.1	0.0495
0	813	40.127748268	0.049610993072
0	814	40.2	0.0499
0	816	40.3	0.05
0	817	40.342882888	0.05
0	818	40.4	0.05
0	820	40.5	0.05
0	821	40.546348141	0.05
0	822	40.6	0.05
0	824	40.7	0.05
0	825	40.752187771	0.05
0	826	40.8	0.05
0	828	40.9	0.05
0	829	40.968628132	0.05
0	830	41	0.05
0	832	41.1	0.05
0	833	41.163933919	0.05
0	834	41.2	0.0495
0	834	41.2	0.0495
0	836	41.3	0.0499
0	837	41.364665521	0.05
0	838	41.4	0.05
0	840	41.5	0.05
0	842	41.6	0.05
0	843	41.614191772	0.05
0	844	41.7	0.05
0	845	41.766973498	0.05
0	846	41.8	0.05
0	848	41.9	0.05
0	849	41.902466608	0.05
0	850	42	0.05
0	851	42.06608113	0.05
0	852	42.1	0.05
0	854	42.2	0.05
0	855	42.21626077	0.05
0	856	42.3	0.0495
0	856	42.3	0.0495
0	858	42.4	0.0499
0	859	42.421521292	0.049986085168
0	860	42.5	0.05
0	862	42.6	0.05
0	863	42.634711921	0.05
0	864	42.7	0.05
0	866	42.8	0.05
0	867	42.81541033	0.05
0	868	42.9	0.05
0	870	43	0.05
0	871	43.029962788	0.05
0	872	43.1	0.05
0	873	43.196773063	0.05
0	874	43.2	0.05
0	876	43.3	0.05
0	877	43.328474845	0.05
0	878	43.4	0.0495
0	878	43.4	0.0495
0	879	43.477839043	0.049811356172
0	880	43.5	0.0499
0	882	43.6	0.05
0	883	43.60852585	0.05
0	884	43.7	0.05
0	886	43.8	0.05
0	887	43.819866427	0.05
0	888	43.9	0.05
0	890	44	0.05
0	891	44.058290518	0.05
0	892	44.1	0.05
0	894	44.2	0.05
0	895	44.260175188	0.05
0	896	44.3	0.05
0	898	44.4	0.05
0	899	44.420504707	0.05
0	900	44.5	0.0495
0	900	44.5	0.0495
0	902	44.6	0.0499
0	904	44.7	0.05
0	905	44.704887841	0.05
0	906	44.8	0.05
0	907	44.89182094	0.05
0	908	44.9	0.05
0	910	45	0.05
0	911	45.072760612	0.05
0	912	45.1	0.05
0	913	45.188493967	0.05
0	914	45.2	0.05
0	916	45.3	0.05
0	917	45.351147013	0.05
0	918	45.4	0.05
0	920	45.5	0.05
0	921	45.539737993	0.05
0	922	45.6	0.0495
0	922	45.6	0.0495
0	924	45.7	0.0499
0	925	45.711151099	0.049944604396
0	926	45.8	0.05
0	927	45.891959149	0.05
0	928	45.9	0.05
0	930	46	0.05
0	931	46.050595918	0.05
0	932	46.1	0.05
0	933	46.168017577	0.05
0	934	46.2	0.05
0	936	46.3	0.05
0	937	46.312045924	0.05
0	938	46.4	0.05
0	939	46.437221542	0.05
0	940	46.5	0.05
0	941	46.532676043	0.05
0	942	46.6	0.0495
0	942	46.6	0.0495
0	943	46.698287941	0.049893151764
0	944	46.7	0.0499
0	946	46.8	0.05
0	947	46.88849545	0.05
0	948	46.9	0.05
0	951	47	0.05
0	952	47.040433177	0.05
0	953	47.1	0.05
0	954	47.185710547	0.05
0	955	47.2	0.05
0	957	47.3	0.05
0	958	47.321188531	0.05
0	959	47.4	0.05
0	961	47.5	0.05
0	962	47.552289601	0.05
0	963	47.6	0.05
0	965	47.7	0.05
0	966	47.773749595	0.05
0	967	47.8	0.05
0	969	47.9	0.05
0	970	47.979985783	0.05
0	971	48	0.05
0	973	48.1	0.05
0	975	48.2	0.05
0	976	48.215344474	0.05
0	977	48.3	0.05
0	978	48.339994186	0.05
0	979	48.4	0.05
0	980	48.432550486	0.05
0	981	48.5	0.05
0	982	48.559568575	0.05
0	983	48.6	0.05
0	984	48.651936091	0.05
0	985	48.7	0.05
0	987	48.8	0.05
0	988	48.834030793	0.05
0	989	48.9	0.05
0	991	49	0.05
0	992	49.00128733	0.05
0	993	49.018237135957	0.05
0	994	49.1	0.05
0	995	49.161325261	0.05
0	996	49.2	0.05
0	998	49.3	0.05
0	999	49.324145707	0.05
0	1000	49.4	0.05
0	1001	49.465853521	0.05
0	1002	49.5	0.05
0	1004	49.6	0.05
0	1005	49.628082115	0.05
0	1006	49.7	0.0495
0	1006	49.7	0.0495
0	1008	49.8	0.0495
0	1009	49.817528479	0.0495
0	1010	49.9	0.0495
0	1012	50	0.0495
0	1013	50.014621693	0.0495
0	1014	50.1	0.0495
0	1016	50.2	0.0495
0	1017	50.234727106	0.0495
0	1018	50.3	0.0495
0	1020	50.4	0.0495
0	1021	50.410040617	0.0495
0	1022	50.5	0.0495
0	1023	50.592394864	0.0495
0	1024	50.6	0.0495
0	1026	50.68560553	0.0495
0	1027	50.7	0.0495
0	1028	50.797564012	0.0495
0	1029	50.8	0.0495
0	1030	50.890021759	0.0495
0	1031	50.9	0.0495
0	1033	51	0.0495
0	1033	51.006254353	0.0495
0	1035	51.1	0.0495
0	1035	51.114386926	0.0495
0	1037	51.2	0.0495
0	1037	51.249988822	0.0495
0	1039	51.3	0.0495
0	1041	51.4	0.0495
0	1041	51.435741316	0.0495
0	1043	51.5	0.0495
0	1045	51.6	0.0495
0	1045	51.617397601	0.0495
0	1047	51.7	0.0495
0	1047	51.745408672	0.049005
0	1047	51.745408672	0.049005
0	1049	51.8	0.049005
0	1049	51.880282198	0.049005
0	1051	51.9	0.049005
0	1053	52	0.049005
0	1053	52.016420593	0.049005
0	1055	52.1	0.049005
0	1055	52.168143184	0.049005
0	1057	52.2	0.049005
0	1058	52.285203178	0.049005
0	1059	52.3	0.049005
0	1061	52.4	0.049005
0	1061	52.464241831	0.049005
0	1063	52.5	0.049005
0	1064	52.599487387	0.049005
0	1065	52.6	0.049005
0	1066	52.693861744	0.049005
0	1067	52.7	0.049005
0	1069	52.8	0.049005
0	1069	52.857144607	0.049005
0	1071	52.9	0.049005
0	1073	53	0.049005
0	1073	53.021249113	0.049005
0	1075	53.1	0.049005
0	1075	53.155990675	0.049005
0	1077	53.2	0.049005
0	1078	53.299707928	0.049005
0	1079	53.3	0.049005
0	1081	53.4	0.049005
0	1081	53.477669863	0.049005
0	1083	53.5	0.049005
0	1085	53.6	0.049005
0	1085	53.635926169	0.049005
0	1087	53.7	0.049005
0	1087	53.775976435	0.04851495
0	1087	53.775976435	0.04851495
0	1089	53.8	0.04851495
0	1091	53.9	0.04851495
0	1091	53.932363846	0.04851495
0	1093	54	0.04851495
0	1094	54.093557578	0.04851495
0	1095	54.1	0.04851495
0	1097	54.2	0.04851495
0	1097	54.209901817	0.04851495
0	1099	54.3	0.04851495
0	1099	54.304098697	0.04851495
0	1101	54.4	0.04851495
0	1102	54.49629208	0.04851495
0	1103	54.5	0.04851495
0	1105	54.6	0.04851495
0	1105	54.641677615	0.04851495
0	1107	54.7	0.04851495
0	1109	54.8	0.04851495
0	1109	54.808405324	0.04851495
0	1111	54.9	0.04851495
0	1111	54.980338285	0.04851495
0	1113	55	0.04851495
0	1115	55.1	0.04851495
0	1115	55.166568784	0.04851495
0	1117	55.2	0.04851495
0	1119	55.3	0.04851495
0	1119	55.325244715	0.04851495
0	1121	55.4	0.04851495
0	1121	55.441528018	0.04851495
0	1123	55.5	0.04851495
0	1123	55.533539593	0.04851495
0	1125	55.6	0.04851495
0	1127	55.7	0.04851495
0	1127	55.740057772	0.04851495
0	1129	55.8	0.04851495
0	1129	55.88245186	0.04851495
0	1131	55.9	0.04851495
0	1133	56	0.04851495
0	1133	56.028240847	0.04851495
0	1135	56.1	0.04851495
0	1135	56.119690144	0.04851495
0	1137	56.2	0.04851495
0	1137	56.225118724	0.04851495
0	1139	56.3	0.04851495
0	1139	56.313469462	0.04851495
0	1141	56.4	0.04851495
0	1141	56.465725588	0.04851495
0	1143	56.5	0.04851495
0	1144	56.596815856	0.04851495
0	1145	56.6	0.04851495
0	1147	56.7	0.04851495
0	1147	56.759494219	0.0480298005
0	1147	56.759494219	0.0480298005
0	1148	56.769634267061	0.0480298005
0	1150	56.869634267061	0.0480298005
0	1151	56.938637587	0.0480298005
0	1152	56.969634267061	0.0480298005
0	1154	57.069634267061	0.0480298005
0	1154	57.074615326	0.0480298005
0	1156	57.169634267061	0.0480298005
0	1157	57.220828936	0.0480298005
0	1158	57.269634267061	0.0480298005
0	1160	57.369634267061	0.0480298005
0	1160	57.377083756	0.0480298005
0	1162	57.469634267061	0.0480298005
0	1163	57.536027851	0.0480298005
0	1164	57.569634267061	0.0480298005
0	1166	57.669634267061	0.0480298005
0	1166	57.683965849	0.0480298005
0	1168	57.769634267061	0.047549502495
0	1168	57.769634267061	0.047549502495
0	1169	57.816804283	0.047549502495
0	1171	57.869634267061	0.047549502495
0	1174	57.969634267061	0.047549502495
0	1174	57.978581389	0.047549502495
0	1177	58.069634267061	0.047549502495
0	1178	58.16398393	0.047549502495
0	1179	58.169634267061	0.047549502495
0	1182	58.269634267061	0.047549502495
0	1184	58.304717212	0.047549502495
0	1185	58.369634267061	0.047549502495
0	1187	58.469104126	0.047549502495
0	1188	58.469634267061	0.047549502495
0	1191	58.569634267061	0.047549502495
0	1192	58.669132501	0.047549502495
0	1193	58.669634267061	0.047549502495
0	1195	58.769634267061	0.047549502495
0	1196	58.856506594	0.047549502495
0	1197	58.869634267061	0.047549502495
0	1199	58.969634267061	0.047549502495
0	1201	59.069634267061	0.047549502495
0	1201	59.079124678	0.047549502495
0	1203	59.169634267061	0.047549502495
0	1204	59.263739719	0.047549502495
0	1205	59.269634267061	0.047549502495
0	1207	59.369634267061	0.047549502495
0	1208	59.454001999	0.047549502495
0	1209	59.469634267061	0.047549502495
0	1211	59.569634267061	0.047549502495
0	1213	59.669634267061	0.047549502495
0	1214	59.699332801	0.047549502495
0	1215	59.769634267061	0.047549502495
0	1217	59.869634267061	0.047549502495
0	1218	59.923103122	0.047549502495
0	1219	59.969634267061	0.047549502495
0	1221	60.069634267061	0.047549502495
0	1222	60.135727354	0.047549502495
0	1223	60.169634267061	0.047549502495
0	1225	60.269634267061	0.047549502495
0	1227	60.369634267061	0.047549502495
0	1227	60.37121947	0.047549502495
0	1229	60.469634267061	0.047549502495
0	1230	60.568189375	0.047549502495
0	1231	60.569634267061	0.047549502495
0	1233	60.669634267061	0.047549502495
0	1235	60.769634267061	0.047549502495
0	1236	60.825401308	0.047549502495
0	1237	60.869634267061	0.047549502495
0	1239	60.969634267061	0.047549502495
0	1241	61.069634267061	0.047549502495
0	1242	61.090843027	0.047549502495
0	1243	61.169634267061	0.047549502495
0	1245	61.269634267061	0.047549502495
0	1247	61.369634267061	0.047549502495
0	1248	61.412923303	0.047549502495
0	1249	61.469634267061	0.047549502495
0	1251	61.569634267061	0.047549502495
0	1252	61.605517786	0.047549502495
0	1253	61.669634267061	0.047549502495
0	1255	61.769634267061	0.047549502495
0	1256	61.839453022	0.047549502495
0	1257	61.869634267061	0.047549502495
0	1259	61.969634267061	0.047549502495
0	1260	62.039796757	0.047549502495
0	1261	62.069634267061	0.047549502495
0	1263	62.169634267061	0.047549502495
0	1265	62.269634267061	0.047549502495
0	1265	62.275473913	0.047549502495
0	1267	62.369634267061	0.047549502495
0	1268	62.467683472	0.047549502495
0	1269	62.469634267061	0.047549502495
0	1271	62.569634267061	0.047549502495
0	1273	62.669634267061	0.047549502495
0	1274	62.685487666	0.047549502495
0	1275	62.769634267061	0.047549502495
0	1277	62.869634267061	0.047549502495
0	1278	62.920349656	0.047549502495
0	1279	62.969634267061	0.047549502495
0	1280	63.064880242	0.047549502495
0	1281	63.069634267061	0.047549502495
0	1283	63.169634267061	0.047549502495
0	1285	63.269634267061	0.047549502495
0	1286	63.345405613	0.047549502495
0	1287	63.369634267061	0.047549502495
0	1289	63.469634267061	0.047549502495
0	1291	63.569634267061	0.047549502495
0	1292	63.606063442	0.047549502495
0	1293	63.669634267061	0.047549502495
0	1295	63.769634267061	0.047549502495
0	1296	63.849413515	0.047549502495
0	1297	63.869634267061	0.047549502495
0	1299	63.969634267061	0.047549502495
0	1300	64.054092415	0.047549502495
0	1301	64.069634267061	0.047549502495
0	1303	64.169634267061	0.047549502495
0	1304	64.257079798	0.047549502495
0	1305	64.269634267061	0.047549502495
0	1307	64.369634267061	0.047549502495
0	1309	64.469634267061	0.047549502495
0	1310	64.536069082	0.047549502495
0	1311	64.569634267061	0.047549502495
0	1313	64.669634267061	0.047549502495
0	1315	64.769634267061	0.047549502495
0	1316	64.798489705	0.047549502495
0	1317	64.869634267061	0.047549502495
0	1318	64.95936847	0.047549502495
0	1319	64.969634267061	0.047549502495
0	1321	65.069634267061	0.047549502495
0	1323	65.169634267061	0.047549502495
0	1324	65.18848228	0.047549502495
0	1325	65.269634267061	0.047549502495
0	1327	65.369634267061	0.047549502495
0	1327	65.378089993	0.047549502495
0	1329	65.469634267061	0.047549502495
0	1331	65.569634267061	0.047549502495
0	1332	65.630451532	0.047549502495
0	1333	65.669634267061	0.047549502495
0	1335	65.769634267061	0.047549502495
0	1337	65.869634267061	0.047549502495
0	1338	65.908508137	0.047549502495
0	1339	65.969634267061	0.047549502495
0	1341	66.069634267061	0.047549502495
0	1342	66.106063612	0.047549502495
0	1343	66.169634267061	0.047549502495
0	1345	66.269634267061	0.047549502495
0	1346	66.289180951	0.047549502495
0	1347	66.369634267061	0.047549502495
0	1349	66.469634267061	0.047549502495
0	1350	66.525118957	0.047549502495
0	1351	66.569634267061	0.047549502495
0	1353	66.669634267061	0.047549502495
0	1354	66.764548819	0.047549502495
0	1355	66.769634267061	0.047549502495
0	1357	66.869634267061	0.047549502495
0	1359	66.969634267061	0.047549502495
0	1359	66.971066335	0.047549502495
0	1361	67.069634267061	0.047549502495
0	1362	67.105768798	0.047549502495
0	1363	67.169634267061	0.047549502495
0	1365	67.269634267061	0.047549502495
0	1366	67.305275836	0.047549502495
0	1367	67.369634267061	0.047549502495
0	1369	67.469634267061	0.047549502495
0	1371	67.569634267061	0.047549502495
0	1371	67.578126202	0.047549502495
0	1373	67.669634267061	0.047549502495
0	1374	67.764236677	0.047549502495
0	1375	67.769634267061	0.047549502495
0	1377	67.869634267061	0.047549502495
0	1379	67.969634267061	0.047549502495
0	1380	68.012947453	0.047549502495
0	1381	68.069634267061	0.047549502495
0	1383	68.169634267061	0.047549502495
0	1384	68.217906796	0.047549502495
0	1385	68.269634267061	0.047549502495
0	1386	68.357004832	0.047549502495
0	1387	68.369634267061	0.047549502495
0	1389	68.469634267061	0.047549502495
0	1390	68.495505148	0.047549502495
0	1391	68.569634267061	0.047549502495
0	1393	68.669634267061	0.047549502495
0	1394	68.734449922	0.047549502495
0	1395	68.769634267061	0.047549502495
0	1397	68.869634267061	0.047549502495
0	1398	68.888438713	0.047549502495
0	1399	68.969634267061	0.047549502495
0	1400	69.034318918	0.047549502495
0	1401	69.069634267061	0.047549502495
0	1403	69.169634267061	0.047549502495
0	1405	69.269634267061	0.047549502495
0	1406	69.297853732	0.047549502495
0	1407	69.369634267061	0.047549502495
0	1409	69.469634267061	0.047549502495
0	1410	69.5022934	0.047549502495
0	1411	69.569634267061	0.047549502495
0	1413	69.669634267061	0.047549502495
0	1414	69.733834642	0.047549502495
0	1415	69.769634267061	0.047549502495
0	1417	69.869634267061	0.047549502495
0	1418	69.921499471	0.047549502495
0	1419	69.969634267061	0.047549502495
0	1420	70.06174552	0.047549502495
0	1421	70.069634267061	0.047549502495
0	1423	70.169634267061	0.047549502495
0	1425	70.269634267061	0.047549502495
0	1426	70.292653765	0.047549502495
0	1427	70.369634267061	0.047549502495
0	1428	70.461010192	0.047549502495
0	1429	70.469634267061	0.047549502495
0	1431	70.569634267061	0.047549502495
0	1432	70.637569717	0.047549502495
0	1433	70.669634267061	0.047549502495
0	1435	70.769634267061	0.047549502495
0	1436	70.807151758	0.047549502495
0	1437	70.869634267061	0.047549502495
0	1439	70.969634267061	0.047549502495
0	1440	71.050251931	0.047549502495
0	1441	71.069634267061	0.047549502495
0	1443	71.169634267061	0.047549502495
0	1445	71.269634267061	0.047549502495
0	1445	71.275194316	0.047549502495
0	1447	71.369634267061	0.047549502495
0	1449	71.469634267061	0.047549502495
0	1450	71.499242395	0.047549502495
0	1451	71.569634267061	0.047549502495
0	1453	71.669634267061	0.047549502495
0	1454	71.721184237	0.047549502495
0	1455	71.769634267061	0.047549502495
0	1457	71.869634267061	0.047549502495
0	1458	71.924765992	0.047549502495
0	1459	71.969634267061	0.047549502495
0	1460	72.053580772	0.047549502495
0	1461	72.069634267061	0.047549502495
0	1463	72.169634267061	0.047549502495
0	1464	72.185519476	0.047549502495
0	1465	72.269634267061	0.047549502495
0	1467	72.369634267061	0.047549502495
0	1468	72.394433824	0.047549502495
0	1469	72.469634267061	0.047549502495
0	1471	72.569634267061	0.047549502495
0	1472	72.601651144	0.047549502495
0	1473	72.669634267061	0.047549502495
0	1474	72.73947304	0.047549502495
0	1475	72.769634267061	0.047549502495
0	1477	72.869634267061	0.047549502495
0	1478	72.960422086	0.047549502495
0	1479	72.969634267061	0.047549502495
0	1481	73.069634267061	0.047549502495
0	1483	73.169634267061	0.047549502495
0	1484	73.224022363	0.047549502495
0	1486	73.269634267061	0.047549502495
0	1488	73.369634267061	0.047549502495
0	1489	73.46346736	0.047549502495
0	1490	73.469634267061	0.047549502495
0	1492	73.569634267061	0.04707400747005
0	1492	73.569634267061	0.04707400747005
0	1492	73.614909652	0.04707400747005
0	1494	73.669634267061	0.04707400747005
0	1496	73.769634267061	0.04707400747005
0	1497	73.842940834	0.04707400747005
0	1498	73.869634267061	0.04707400747005
0	1500	73.969634267061	0.04707400747005
0	1502	74.069634267061	0.04707400747005
0	1502	74.088885586	0.04707400747005
0	1504	74.169634267061	0.04707400747005
0	1506	74.269634267061	0.04707400747005
0	1506	74.284887616	0.04707400747005
0	1508	74.369634267061	0.04707400747005
0	1510	74.469634267061	0.04707400747005
0	1511	74.563896655	0.04707400747005
0	1512	74.569634267061	0.04707400747005
0	1514	74.669634267061	0.04707400747005
0	1516	74.769634267061	0.04660326739535
0	1516	74.769634267061	0.04660326739535
0	1517	74.845063717	0.04660326739535
0	1518	74.869634267061	0.04660326739535
0	1520	74.969634267061	0.04660326739535
0	1522	75.069634267061	0.04660326739535
0	1524	75.169634267061	0.04660326739535
0	1524	75.186213043	0.04660326739535
0	1526	75.269634267061	0.04660326739535
0	1528	75.369634267061	0.04660326739535
0	1529	75.458262217	0.04660326739535
0	1530	75.469634267061	0.04660326739535
0	1532	75.569634267061	0.04660326739535
0	1532	75.614157478	0.04660326739535
0	1534	75.669634267061	0.04660326739535
0	1536	75.769634267061	0.04660326739535
0	1536	75.791674882	0.04660326739535
0	1538	75.869634267061	0.04660326739535
0	1540	75.969634267061	0.046137234721396
0	1540	75.969634267061	0.046137234721396
0	1540	75.997176454	0.046137234721396
0	1542	76.069634267061	0.046137234721396
0	1544	76.169634267061	0.046137234721396
0	1545	76.232219257	0.046137234721396
0	1546	76.269634267061	0.046137234721396
0	1548	76.369634267061	0.046137234721396
0	1548	76.379970922	0.046137234721396
0	1550	76.469634267061	0.046137234721396
0	1551	76.529255467	0.046137234721396
0	1552	76.569634267061	0.046137234721396
0	1552	76.621862803	0.046137234721396
0	1554	76.669634267061	0.046137234721396
0	1555	76.743417061	0.046137234721396
0	1556	76.769634267061	0.046137234721396
0	1557	76.85777566	0.046137234721396
0	1558	76.869634267061	0.046137234721396
0	1559	76.964263942	0.045675862374182
0	1559	76.964263942	0.045675862374182
0	1560	76.969634267061	0.045675862374182
0	1561	77.060038177	0.045675862374182
0	1562	77.069634267061	0.045675862374182
0	1564	77.169634267061	0.045675862374182
0	1564	77.19169183	0.045675862374182
0	1566	77.269634267061	0.045675862374182
0	1567	77.339995528	0.045675862374182
0	1568	77.369634267061	0.045675862374182
0	1570	77.469634267061	0.045675862374182
0	1570	77.520303253	0.045675862374182
0	1572	77.569634267061	0.045675862374182
0	1574	77.669634267061	0.045675862374182
0	1574	77.684346769	0.045675862374182
0	1576	77.769634267061	0.045675862374182
0	1577	77.869483279	0.045675862374182
0	1578	77.869634267061	0.045675862374182
0	1580	77.969634267061	0.04521910375044
0	1580	77.969634267061	0.04521910375044
0	1580	78.022577773	0.04521910375044
0	1582	78.069634267061	0.04521910375044
0	1584	78.169634267061	0.04521910375044
0	1584	78.194093479	0.04521910375044
0	1586	78.269634267061	0.04521910375044
0	1587	78.343233727	0.04521910375044
0	1588	78.369634267061	0.04521910375044
0	1590	78.469634267061	0.04521910375044
0	1591	78.526862632	0.04521910375044
0	1592	78.569634267061	0.04521910375044
0	1594	78.669634267061	0.04521910375044
0	1594	78.672123226	0.04521910375044
0	1596	78.769634267061	0.04521910375044
0	1597	78.842945479	0.04521910375044
0	1598	78.869634267061	0.04521910375044
0	1599	78.968235133	0.04521910375044
0	1600	78.969634267061	0.044766912712936
0	1600	78.969634267061	0.044766912712936
0	1602	79.069634267061	0.044766912712936
0	1603	79.127256979	0.044766912712936
0	1604	79.169634267061	0.044766912712936
0	1606	79.269634267061	0.044766912712936
0	1606	79.299678799	0.044766912712936
0	1608	79.369634267061	0.044766912712936
0	1609	79.456797622	0.044766912712936
0	1610	79.469634267061	0.044766912712936
0	1612	79.569634267061	0.044766912712936
0	1612	79.617174952	0.044766912712936
0	1614	79.669634267061	0.044766912712936
0	1616	79.769634267061	0.044766912712936
0	1616	79.810225156	0.044766912712936
0	1618	79.869634267061	0.044766912712936
0	1620	79.969634267061	0.044766912712936
0	1620	79.974734755	0.044766912712936
0	1622	80.069634267061	0.044319243585806
0	1622	80.069634267061	0.044319243585806
0	1624	80.169634267061	0.044319243585806
0	1624	80.202175591	0.044319243585806
0	1626	80.269634267061	0.044319243585806
0	1628	80.369634267061	0.044319243585806
0	1628	80.373471847	0.044319243585806
0	1630	80.469634267061	0.044319243585806
0	1631	80.541259582	0.044319243585806
0	1632	80.569634267061	0.044319243585806
0	1634	80.669634267061	0.044319243585806
0	1635	80.731491016	0.044319243585806
0	1636	80.769634267061	0.044319243585806
0	1638	80.869634267061	0.044319243585806
0	1638	80.891180626	0.044319243585806
0	1640	80.969634267061	0.044319243585806
0	1642	81.069634267061	0.044319243585806
0	1642	81.122051131	0.044319243585806
0	1644	81.169634267061	0.043876051149948
0	1644	81.169634267061	0.043876051149948
0	1646	81.269634267061	0.043876051149948
0	1648	81.369634267061	0.043876051149948
0	1648	81.399963874	0.043876051149948
0	1650	81.469634267061	0.043876051149948
0	1651	81.525005578	0.043876051149948
0	1652	81.569634267061	0.043876051149948
0	1654	81.669634267061	0.043876051149948
0	1654	81.713338048	0.043876051149948
0	1656	81.769634267061	0.043876051149948
0	1657	81.831954085	0.043876051149948
0	1658	81.869634267061	0.043876051149948
0	1660	81.969634267061	0.043876051149948
0	1660	81.987755455	0.043876051149948
0	1662	82.069634267061	0.043876051149948
0	1663	82.16954716	0.043876051149948
0	1664	82.169634267061	0.043876051149948
0	1666	82.269634267061	0.043437290638449
0	1666	82.269634267061	0.043437290638449
0	1667	82.348780996	0.043437290638449
0	1668	82.369634267061	0.043437290638449
0	1670	82.469634267061	0.043437290638449
0	1671	82.533121606	0.043437290638449
0	1672	82.569634267061	0.043437290638449
0	1674	82.669634267061	0.043437290638449
0	1674	82.718380048	0.043437290638449
0	1676	82.769634267061	0.043437290638449
0	1677	82.841188603	0.043437290638449
0	1678	82.869634267061	0.043437290638449
0	1680	82.969634267061	0.043437290638449
0	1680	82.984726702	0.043437290638449
0	1682	83.069634267061	0.043437290638449
0	1682	83.116642924	0.043437290638449
0	1684	83.169634267061	0.043437290638449
0	1686	83.269634267061	0.043437290638449
0	1686	83.284165669	0.043437290638449
0	1688	83.369634267061	0.043437290638449
0	1689	83.430113557	0.043437290638449
0	1690	83.469634267061	0.043437290638449
0	1692	83.569634267061	0.043437290638449
0	1692	83.601749752	0.043437290638449
0	1694	83.669634267061	0.043437290638449
0	1695	83.76899734	0.043437290638449
0	1696	83.769634267061	0.043437290638449
0	1698	83.869634267061	0.043437290638449
0	1700	83.969634267061	0.043437290638449
0	1701	84.026774062	0.043437290638449
0	1702	84.069634267061	0.043437290638449
0	1704	84.169634267061	0.043437290638449
0	1704	84.209254417	0.043437290638449
0	1706	84.269634267061	0.043437290638449
0	1708	84.369634267061	0.043437290638449
0	1708	84.408887437	0.043437290638449
0	1710	84.469634267061	0.043437290638449
0	1712	84.569634267061	0.043437290638449
0	1713	84.625059025	0.043437290638449
0	1714	84.669634267061	0.043437290638449
0	1716	84.769634267061	0.043437290638449
0	1718	84.869634267061	0.043437290638449
0	1718	84.913626496	0.043437290638449
0	1720	84.969634267061	0.043437290638449
0	1722	85.069634267061	0.043437290638449
0	1723	85.145143132	0.043437290638449
0	1724	85.169634267061	0.043437290638449
0	1726	85.269634267061	0.043437290638449
0	1727	85.351290553	0.043437290638449
0	1728	85.369634267061	0.043437290638449
0	1730	85.469634267061	0.043437290638449
0	1732	85.569634267061	0.043437290638449
0	1732	85.581254947	0.043437290638449
0	1734	85.669634267061	0.043437290638449
0	1736	85.769634267061	0.043437290638449
0	1736	85.801556977	0.043437290638449
0	1738	85.869634267061	0.043437290638449
0	1739	85.945232395	0.043437290638449
0	1740	85.969634267061	0.043437290638449
0	1742	86.069634267061	0.043437290638449
0	1742	86.092106866	0.043437290638449
0	1744	86.169634267061	0.043437290638449
0	1745	86.246474746	0.043437290638449
0	1746	86.269634267061	0.043437290638449
0	1748	86.369634267061	0.043437290638449
0	1748	86.388215482	0.043437290638449
0	1750	86.469634267061	0.043437290638449
0	1752	86.569634267061	0.043437290638449
0	1752	86.590771555	0.043437290638449
0	1754	86.669634267061	0.043002917732064
0	1754	86.669634267061	0.043002917732064
0	1756	86.769634267061	0.043002917732064
0	1756	86.770748734	0.043002917732064
0	1758	86.869634267061	0.043002917732064
0	1758	86.909387725	0.043002917732064
0	1760	86.969634267061	0.043002917732064
0	1761	87.060141646	0.043002917732064
0	1762	87.069634267061	0.043002917732064
0	1764	87.169634267061	0.043002917732064
0	1764	87.21681505	0.043002917732064
0	1766	87.269634267061	0.043002917732064
0	1768	87.369634267061	0.043002917732064
0	1768	87.409353829	0.043002917732064
0	1770	87.469634267061	0.043002917732064
0	1772	87.566796064	0.043002917732064
0	1773	87.569634267061	0.043002917732064
0	1775	87.669634267061	0.043002917732064
0	1775	87.720349762	0.042572888554744
0	1775	87.720349762	0.042572888554744
0	1777	87.769634267061	0.042572888554744
0	1779	87.869634267061	0.042572888554744
0	1779	87.896236564	0.042572888554744
0	1781	87.969634267061	0.042572888554744
0	1781	87.989950924	0.042572888554744
0	1783	88.069634267061	0.042572888554744
0	1783	88.115997019	0.042572888554744
0	1785	88.169634267061	0.042572888554744
0	1785	88.212991348	0.042572888554744
0	1787	88.269634267061	0.042572888554744
0	1789	88.369634267061	0.042572888554744
0	1789	88.400501875	0.042572888554744
0	1791	88.469634267061	0.042572888554744
0	1792	88.553999323	0.042572888554744
0	1793	88.569634267061	0.042572888554744
0	1795	88.669634267061	0.042572888554744
0	1795	88.708081843	0.042147159669196
0	1795	88.708081843	0.042147159669196
0	1797	88.769634267061	0.042147159669196
0	1798	88.854930124	0.042147159669196
0	1799	88.869634267061	0.042147159669196
0	1801	88.969634267061	0.042147159669196
0	1801	89.023455823	0.042147159669196
0	1803	89.069634267061	0.042147159669196
0	1805	89.169634267061	0.042147159669196
0	1805	89.182636141	0.042147159669196
0	1807	89.269634267061	0.042147159669196
0	1808	89.365324171	0.042147159669196
0	1809	89.369634267061	0.042147159669196
0	1811	89.469634267061	0.042147159669196
0	1811	89.520440881	0.042147159669196
0	1813	89.569634267061	0.042147159669196
0	1814	89.659915858	0.042147159669196
0	1815	89.669634267061	0.042147159669196
0	1817	89.769634267061	0.042147159669196
0	1817	89.801610658	0.042147159669196
0	1819	89.869634267061	0.042147159669196
0	1820	89.965866289	0.042147159669196
0	1821	89.969634267061	0.042147159669196
0	1823	90.069634267061	0.042147159669196
0	1823	90.11998213	0.042147159669196
0	1825	90.169634267061	0.042147159669196
0	1827	90.269634267061	0.042147159669196
0	1827	90.292218847	0.042147159669196
0	1829	90.369634267061	0.042147159669196
0	1829	90.396054343	0.042147159669196
0	1831	90.469634267061	0.042147159669196
0	1833	90.569634267061	0.042147159669196
0	1833	90.580373827	0.042147159669196
0	1835	90.669634267061	0.042147159669196
0	1835	90.696153835	0.042147159669196
0	1837	90.769634267061	0.042147159669196
0	1837	90.793371556	0.042147159669196
0	1839	90.869634267061	0.042147159669196
0	1840	90.927984556	0.042147159669196
0	1841	90.969634267061	0.042147159669196
0	1842	91.038615235	0.042147159669196
0	1843	91.069634267061	0.042147159669196
0	1845	91.169634267061	0.042147159669196
0	1845	91.197245956	0.042147159669196
0	1847	91.269634267061	0.042147159669196
0	1848	91.367835355	0.042147159669196
0	1849	91.369634267061	0.042147159669196
0	1851	91.469634267061	0.042147159669196
0	1852	91.567122607	0.042147159669196
0	1853	91.569634267061	0.042147159669196
0	1855	91.669634267061	0.042147159669196
0	1857	91.769634267061	0.042147159669196
0	1857	91.789850086	0.041725688072504
0	1857	91.789850086	0.041725688072504
0	1859	91.869634267061	0.041725688072504
0	1861	91.969634267061	0.041725688072504
0	1862	92.024965015	0.041725688072504
0	1863	92.069634267061	0.041725688072504
0	1865	92.169634267061	0.041725688072504
0	1865	92.172902947	0.041725688072504
0	1867	92.269634267061	0.041725688072504
0	1868	92.362408036	0.041725688072504
0	1869	92.369634267061	0.041725688072504
0	1871	92.469634267061	0.041725688072504
0	1873	92.563587672516	0.041725688072504
0	1874	92.569634267061	0.041749874450684
0	1874	92.612558551	0.04192157158644
0	1876	92.63216565439	0.042
0	1877	92.669634267061	0.042149874450684
0	1879	92.75716565439	0.0425
0	1880	92.769634267061	0.042549874450684
0	1882	92.869634267061	0.042520375706177
0	1882	92.869634267061	0.042520375706177
0	1882	92.879164444	0.042558496413933
0	1883	92.88216565439	0.043
0	1885	92.969634267061	0.043349874450684
0	1886	93.00716565439	0.0435
0	1887	93.044773867	0.04365043285044
0	1888	93.069634267061	0.043749874450684
0	1890	93.13216565439	0.044
0	1891	93.169634267061	0.044149874450684
0	1892	93.238011451	0.04442338318644
0	1893	93.25716565439	0.0445
0	1894	93.269634267061	0.044549874450684
0	1896	93.369634267061	0.044949874450684
0	1897	93.38216565439	0.045
0	1898	93.431051809	0.04519554461844
0	1899	93.469634267061	0.045349874450684
0	1900	93.50716565439	0.0455
0	1902	93.569634267061	0.045749874450684
0	1904	93.63216565439	0.046
0	1904	93.660049963	0.04611153723444
0	1905	93.669634267061	0.046149874450684
0	1907	93.75716565439	0.0465
0	1908	93.769634267061	0.046549874450684
0	1910	93.869634267061	0.046949874450684
0	1910	93.881761687	0.04699838413044
0	1911	93.88216565439	0.047
0	1913	93.969634267061	0.047349874450684
0	1914	94.00716565439	0.0475
0	1915	94.038563179	0.04762559009844
0	1916	94.069634267061	0.047749874450684
0	1918	94.13216565439	0.048
0	1918	94.164087592	0.04812768775044
0	1919	94.169634267061	0.048149874450684
0	1921	94.25716565439	0.0485
0	1921	94.258834066	0.04850667364644
0	1922	94.269634267061	0.048549874450684
0	1924	94.369634267061	0.048949874450684
0	1925	94.38216565439	0.049
0	1925	94.419414814	0.04914899663844
0	1927	94.469634267061	0.049349874450684
0	1928	94.50716565439	0.0495
0	1929	94.560309289	0.049215448793056
0	1929	94.560309289	0.049215448793056
0	1930	94.569634267061	0.0492527487053
0	1932	94.63216565439	0.05
0	1933	94.669634267061	0.05
0	1934	94.746824383	0.05
0	1935	94.769634267061	0.05
0	1937	94.869634267061	0.05
0	1937	94.915954984	0.05
0	1939	94.969634267061	0.05
0	1940	95.032809748	0.05
0	1941	95.069634267061	0.05
0	1942	95.128512883	0.05
0	1943	95.169634267061	0.05
0	1944	95.253978358	0.05
0	1945	95.269634267061	0.05
0	1947	95.369634267061	0.05
0	1947	95.387736829	0.05
0	1949	95.469634267061	0.05
0	1950	95.534968339	0.05
0	1951	95.569634267061	0.05
0	1953	95.669634267061	0.05
0	1953	95.674639189	0.05
0	1955	95.769634267061	0.05
0	1956	95.826356671	0.05
0	1957	95.869634267061	0.05
0	1959	95.969634267061	0.05
0	1959	95.999370751	0.05
0	1961	96.069634267061	0.05
0	1962	96.156289438	0.05
0	1963	96.169634267061	0.05
0	1965	96.269634267061	0.05
0	1965	96.318851758	0.05
0	1967	96.369634267061	0.05
0	1969	96.469634267061	0.05
0	1969	96.479888011	0.05
0	1971	96.569634267061	0.05
0	1972	96.63006577	0.05
0	1973	96.669634267061	0.05
0	1975	96.769634267061	0.05
0	1975	96.793150669	0.05
0	1977	96.869634267061	0.05
0	1978	96.947643073	0.05
0	1979	96.969634267061	0.05
0	1981	97.069634267061	0.05
0	1982	97.126483783	0.05
0	1983	97.169634267061	0.05
0	1984	97.241390704	0.05
0	1985	97.269634267061	0.05
0	1986	97.334661181	0.05
0	1987	97.369634267061	0.05
0	1989	97.469634267061	0.05
0	1989	97.509496696	0.05
0	1991	97.569634267061	0.05
0	1992	97.629259897	0.05
0	1993	97.669634267061	0.05
0	1993	97.723993789	0.05
0	1995	97.769634267061	0.05
0	1996	97.851036346	0.05
0	1997	97.869634267061	0.05
0	1998	97.945290847	0.05
0	1999	97.969634267061	0.05
0	2000	98.061222361	0.05
0	2001	98.069634267061	0.05
0	2002	98.158762456	0.05
0	2003	98.169634267061	0.05
0	2005	98.269634267061	0.05
0	2005	98.288256688	0.05
0	2007	98.369634267061	0.05
0	2007	98.384236519	0.05
0	2009	98.469634267061	0.05
0	2009	98.512725172	0.05
0	2011	98.569634267061	0.05
0	2012	98.627452294	0.05
0	2013	98.669634267061	0.05
0	2014	98.731639978	0.05
0	2015	98.769634267061	0.05
0	2017	98.869634267061	0.05
0	2017	98.87374936	0.05
0	2019	98.969634267061	0.05
0	2019	99.015270259	0.05
0	2021	99.069634267061	0.05
0	2021	99.110018944	0.05
0	2023	99.169634267061	0.05
0	2025	99.269634267061	0.05
0	2025	99.281603107	0.05
0	2027	99.369634267061	0.05
0	2028	99.448861564	0.05
0	2029	99.469634267061	0.05
0	2031	99.569634267061	0.05
0	2031	99.59273647	0.05
0	2033	99.669634267061	0.05
0	2034	99.758558854	0.05
0	2035	99.769634267061	0.05
0	2037	99.869634267061	0.05
0	2037	99.905308249	0.05
0	2039	99.969634267061	0.05
0	2040	100.027595467	0.05
0	2041	100.069634267061	0.05
0	2042	100.167836227	0.05
0	2043	100.169634267061	0.05
0	2045	100.269634267061	0.05
0	2045	100.314290128	0.05
0	2047	100.369634267061	0.05
0	2049	100.469634267061	0.05
0	2049	100.497132874	0.05
0	2051	100.569634267061	0.05
0	2052	100.635449959	0.05
0	2053	100.669634267061	0.05
0	2055	100.769634267061	0.05
0	2055	100.799370322	0.05
0	2057	100.869634267061	0.05
0	2059	100.969634267061	0.05
0	2059	100.973756317	0.05
0	2061	101.069634267061	0.05
0	2062	101.125335694	0.05
0	2063	101.169634267061	0.05
0	2065	101.269634267061	0.05
0	2065	101.305662604	0.05
0	2067	101.369634267061	0.05
0	2068	101.455217215	0.05
0	2069	101.469634267061	0.05
0	2071	101.569634267061	0.05
0	2073	101.669634267061	0.05
0	2074	101.735214556	0.05
0	2075	101.769634267061	0.05
0	2076	101.848155274	0.05
0	2077	101.869634267061	0.05
0	2079	101.969634267061	0.05
0	2080	102.028248121	0.05
0	2081	102.069634267061	0.05
0	2083	102.169634267061	0.05
0	2083	102.187150999	0.05
0	2085	102.269634267061	0.05
0	2085	102.317311096	0.05
0	2087	102.369634267061	0.05
0	2088	102.435550714	0.05
0	2089	102.469634267061	0.05
0	2090	102.533908921	0.05
0	2091	102.569634267061	0.05
0	2093	102.669634267061	0.05
0	2094	102.735354781	0.05
0	2095	102.769634267061	0.05
0	2097	102.869634267061	0.05
0	2097	102.892784194	0.05
0	2099	102.969634267061	0.05
0	2099	103.020580015	0.05
0	2101	103.069634267061	0.05
0	2102	103.167055894	0.05
0	2103	103.169634267061	0.05
0	2105	103.269634267061	0.05
0	2106	103.333476469	0.05
0	2107	103.369634267061	0.05
0	2109	103.469634267061	0.05
0	2109	103.51811647	0.05
0	2111	103.569634267061	0.05
0	2112	103.65483022	0.05
0	2113	103.669634267061	0.05
0	2115	103.769634267061	0.05
0	2115	103.819451971	0.05
0	2117	103.869634267061	0.05
0	2117	103.919023801	0.05
0	2119	103.969634267061	0.05
0	2120	104.036285011	0.05
0	2121	104.069634267061	0.05
0	2122	104.135353279	0.05
0	2123	104.169634267061	0.05
0	2124	104.257084066	0.05
0	2125	104.269634267061	0.05
0	2127	104.369634267061	0.05
0	2127	104.373142909	0.05
0	2129	104.469634267061	0.05
0	2130	104.552334214	0.05
0	2131	104.569634267061	0.05
0	2133	104.669634267061	0.05
0	2133	104.682371833	0.05
0	2135	104.769634267061	0.05
0	2136	104.83717975	0.05
0	2137	104.869634267061	0.05
0	2139	104.969634267061	0.05
0	2139	105.01882396	0.05
0	2141	105.069634267061	0.05
0	2141	105.115487671	0.05
0	2143	105.169634267061	0.05
0	2144	105.260623912	0.05
0	2145	105.269634267061	0.05
0	2146	105.350501809	0.05
0	2147	105.369634267061	0.05
0	2149	105.469634267061	0.05
0	2149	105.483115753	0.0495
0	2149	105.483115753	0.0495
0	2151	105.528452581365	0.04968134731346
0	2152	105.569634267061	0.04968134731346
0	2152	105.573135979	0.04968134731346
0	2154	105.669634267061	0.04968134731346
0	2155	105.755120965	0.04968134731346
0	2156	105.769634267061	0.04968134731346
0	2158	105.869634267061	0.04968134731346
0	2158	105.913404508	0.04968134731346
0	2160	105.969634267061	0.04968134731346
0	2161	106.060133737	0.04968134731346
0	2162	106.069634267061	0.04968134731346
0	2164	106.169634267061	0.04968134731346
0	2165	106.255428514	0.04968134731346
0	2166	106.269634267061	0.04968134731346
0	2168	106.369634267061	0.04968134731346
0	2168	106.390932385	0.04968134731346
0	2170	106.469634267061	0.049184533840325
0	2170	106.469634267061	0.049184533840325
0	2171	106.553338942	0.049184533840325
0	2172	106.569634267061	0.049184533840325
0	2174	106.669634267061	0.049184533840325
0	2176	106.769634267061	0.049184533840325
0	2176	106.803580465	0.049184533840325
0	2178	106.869634267061	0.049184533840325
0	2179	106.955072533	0.049184533840325
0	2180	106.969634267061	0.049184533840325
0	2182	107.069634267061	0.049184533840325
0	2183	107.13139285	0.049184533840325
0	2184	107.169634267061	0.049184533840325
0	2186	107.269634267061	0.049184533840325
0	2186	107.304331336	0.049184533840325
0	2188	107.369634267061	0.049184533840325
0	2190	107.469634267061	0.049184533840325
0	2191	107.539089277	0.049184533840325
0	2192	107.569634267061	0.048692688501922
0	2192	107.569634267061	0.048692688501922
0	2194	107.669634267061	0.048692688501922
0	2194	107.705574256	0.048692688501922
0	2196	107.769634267061	0.048692688501922
0	2198	107.869634267061	0.048692688501922
0	2198	107.886499621	0.048692688501922
0	2200	107.969634267061	0.048692688501922
0	2201	108.037064761	0.048692688501922
0	2202	108.069634267061	0.048692688501922
0	2204	108.169634267061	0.048692688501922
0	2204	108.210629371	0.048692688501922
0	2206	108.269634267061	0.048692688501922
0	2208	108.369634267061	0.048692688501922
0	2208	108.393299119	0.048692688501922
0	2210	108.469634267061	0.048692688501922
0	2210	108.49834219	0.048692688501922
0	2212	108.569634267061	0.048692688501922
0	2212	108.589467847	0.048692688501922
0	2214	108.669634267061	0.048692688501922
0	2214	108.724049245	0.048692688501922
0	2216	108.769634267061	0.048692688501922
0	2218	108.869634267061	0.048692688501922
0	2218	108.919729072	0.048692688501922
0	2220	108.969634267061	0.048692688501922
0	2221	109.061331037	0.048692688501922
0	2222	109.069634267061	0.048692688501922
0	2224	109.169634267061	0.048692688501922
0	2224	109.177255372	0.048692688501922
0	2226	109.269634267061	0.048692688501922
0	2226	109.271065573	0.048692688501922
0	2228	109.369634267061	0.048692688501922
0	2228	109.380462775	0.048692688501922
0	2229	109.468961515	0.048692688501922
0	2230	109.469634267061	0.048692688501922
0	2232	109.569634267061	0.048205761616903
0	2232	109.569634267061	0.048205761616903
0	2233	109.658921149	0.048205761616903
0	2234	109.669634267061	0.048205761616903
0	2236	109.769634267061	0.048205761616903
0	2237	109.830756379	0.048205761616903
0	2238	109.869634267061	0.048205761616903
0	2240	109.969634267061	0.048205761616903
0	2240	109.988445589	0.048205761616903
0	2242	110.069634267061	0.048205761616903
0	2242	110.09599648	0.048205761616903
0	2244	110.169634267061	0.048205761616903
0	2245	110.238751519	0.048205761616903
0	2246	110.269634267061	0.048205761616903
0	2248	110.369634267061	0.048205761616903
0	2248	110.405058172	0.048205761616903
0	2250	110.469634267061	0.048205761616903
0	2250	110.515013797	0.048205761616903
0	2252	110.569634267061	0.047723704000734
0	2252	110.569634267061	0.047723704000734
0	2254	110.669634267061	0.047723704000734
0	2254	110.672742337	0.047723704000734
0	2256	110.769634267061	0.047723704000734
0	2256	110.781202336	0.047723704000734
0	2258	110.869634267061	0.047723704000734
0	2259	110.957037799	0.047723704000734
0	2260	110.969634267061	0.047723704000734
0	2262	111.069634267061	0.047723704000734
0	2262	111.087911614	0.047723704000734
0	2264	111.169634267061	0.047723704000734
0	2264	111.184074358	0.047723704000734
0	2266	111.269634267061	0.047723704000734
0	2266	111.32315119	0.047723704000734
0	2268	111.369634267061	0.047723704000734
0	2269	111.438652342	0.047723704000734
0	2270	111.469634267061	0.047723704000734
0	2271	111.530255758	0.047246466960727
0	2271	111.530255758	0.047246466960727
0	2272	111.569634267061	0.047246466960727
0	2273	111.651099481	0.047246466960727
0	2274	111.669634267061	0.047246466960727
0	2275	111.740529844	0.047246466960727
0	2276	111.769634267061	0.047246466960727
0	2277	111.856457527	0.047246466960727
0	2278	111.869634267061	0.047246466960727
0	2279	111.945436303	0.047246466960727
0	2280	111.969634267061	0.047246466960727
0	2282	112.069634267061	0.047246466960727
0	2284	112.169634267061	0.047246466960727
0	2284	112.192036045	0.047246466960727
0	2286	112.269634267061	0.047246466960727
0	2288	112.369634267061	0.047246466960727
0	2288	112.390248862	0.047246466960727
0	2290	112.469634267061	0.047246466960727
0	2292	112.569634267061	0.046774002291119
0	2292	112.569634267061	0.046774002291119
0	2292	112.580846056	0.046774002291119
0	2294	112.669634267061	0.046774002291119
0	2296	112.769634267061	0.046774002291119
0	2297	112.815790427929	0.046774002291119
0	2298	112.838224057	0.046774002291119
0	2299	112.915790427929	0.046774002291119
0	2301	113.015790427929	0.046774002291119
0	2302	113.094915385	0.046774002291119
0	2303	113.115790427929	0.046774002291119
0	2305	113.215790427929	0.046774002291119
0	2306	113.307648154	0.046774002291119
0	2307	113.315790427929	0.046774002291119
0	2309	113.412573980296	0.046774002291119
0	2310	113.415790427929	0.046786868081651
0	2312	113.469073407516	0.047
0	2313	113.515790427929	0.047186868081652
0	2314	113.543958448	0.047299540161936
0	2315	113.594073407516	0.0475
0	2316	113.615790427929	0.047110999400835
0	2316	113.615790427929	0.047110999400835
0	2318	113.715790427929	0.047510999400835
0	2319	113.719073407516	0.048
0	2320	113.776852135	0.048231114909936
0	2321	113.815790427929	0.048386868081652
0	2323	113.844073407516	0.0485
0	2324	113.915790427929	0.048786868081652
0	2326	113.969073407516	0.049
0	2326	114.009689197	0.049162463157936
0	2327	114.015790427929	0.049186868081652
0	2329	114.094073407516	0.0495
0	2330	114.115790427929	0.049586868081652
0	2331	114.181896034	0.049851290505936
0	2332	114.215790427929	0.049986868081652
0	2333	114.219073407516	0.05
0	2335	114.315790427929	0.05
0	2336	114.33264796	0.05
0	2337	114.415790427929	0.05
0	2338	114.458181739	0.05
0	2339	114.515790427929	0.05
0	2340	114.604041136	0.05
0	2341	114.615790427929	0.05
0	2343	114.715790427929	0.05
0	2344	114.751709293	0.05
0	2345	114.815790427929	0.05
0	2346	114.893341237	0.05
0	2347	114.915790427929	0.05
0	2349	115.015790427929	0.05
0	2350	115.054472152	0.05
0	2351	115.115790427929	0.05
0	2352	115.204741372	0.05
0	2353	115.215790427929	0.05
0	2355	115.315790427929	0.05
0	2356	115.349112388	0.05
0	2357	115.415790427929	0.05
0	2358	115.506080554	0.05
0	2359	115.515790427929	0.05
0	2361	115.615790427929	0.05
0	2362	115.686612907	0.05
0	2363	115.715790427929	0.05
0	2365	115.815790427929	0.05
0	2366	115.86948979	0.05
0	2367	115.915790427929	0.05
0	2368	116.013537013	0.05
0	2369	116.015790427929	0.05
0	2371	116.115790427929	0.05
0	2372	116.157365098	0.05
0	2373	116.215790427929	0.05
0	2375	116.315790427929	0.05
0	2376	116.339243404	0.05
0	2377	116.415790427929	0.05
0	2378	116.500807222	0.05
0	2379	116.515790427929	0.05
0	2381	116.615790427929	0.05
0	2382	116.66861902	0.05
0	2383	116.715790427929	0.05
0	2385	116.815790427929	0.05
0	2386	116.861662924	0.05
0	2387	116.915790427929	0.05
0	2389	117.015790427929	0.05
0	2389	117.018037198	0.05
0	2391	117.115790427929	0.05
0	2392	117.146399719	0.05
0	2393	117.215790427929	0.05
0	2394	117.301944649	0.05
0	2395	117.315790427929	0.05
0	2397	117.415790427929	0.05
0	2398	117.463299928	0.05
0	2399	117.515790427929	0.05
0	2401	117.615790427929	0.05
0	2401	117.622469053	0.05
0	2403	117.715790427929	0.05
0	2405	117.815790427929	0.05
0	2406	117.839012632	0.05
0	2407	117.915790427929	0.05
0	2409	118.015790427929	0.05
0	2410	118.092686737	0.05
0	2411	118.115790427929	0.05
0	2413	118.215790427929	0.05
0	2415	118.315790427929	0.05
0	2416	118.342554316	0.05
0	2418	118.415790427929	0.05
0	2421	118.515790427929	0.05
0	2422	118.557370693	0.05
0	2424	118.615790427929	0.05
0	2426	118.715790427929	0.05
0	2428	118.793712562	0.05
0	2429	118.815790427929	0.05
0	2432	118.915790427929	0.05
0	2435	119.015790427929	0.05
0	2435	119.023652596	0.05
0	2438	119.115790427929	0.05
0	2441	119.215790427929	0.05
0	2442	119.265584449	0.05
0	2443	119.315790427929	0.05
0	2445	119.401524244	0.05
0	2446	119.415790427929	0.05
0	2449	119.515790427929	0.05
0	2452	119.615790427929	0.05
0	2453	119.639500882	0.0495
0	2453	119.639500882	0.0495
0	2455	119.715790427929	0.049805158183716
0	2457	119.815790427929	0.05
0	2459	119.889622345	0.05
0	2460	119.915790427929	0.05
0	2463	120.015790427929	0.05
0	2464	120.067517491	0.05
0	2466	120.115790427929	0.05
0	2469	120.215790427929	0.05
0	2471	120.315790427929	0.05
0	2474	120.415790427929	0.05
0	2475	120.439522669	0.05
0	2477	120.515790427929	0.05
0	2480	120.615790427929	0.0495
0	2480	120.615790427929	0.0495
0	2481	120.664067662	0.049693108936284
0	2482	120.715790427929	0.0499
0	2484	120.815790427929	0.05
0	2485	120.882586441	0.05
0	2486	120.915790427929	0.05
0	2488	121.015790427929	0.05
0	2489	121.096589632	0.05
0	2490	121.115790427929	0.05
0	2492	121.215790427929	0.05
0	2494	121.315790427929	0.05
0	2495	121.33660864	0.05
0	2496	121.415790427929	0.05
0	2498	121.515790427929	0.05
0	2499	121.554260527	0.05
0	2500	121.615790427929	0.05
0	2502	121.715790427929	0.05
0	2503	121.787080054	0.0495
0	2503	121.787080054	0.0495
0	2504	121.815790427929	0.049614841495716
0	2506	121.915790427929	0.05
0	2508	122.015790427929	0.05
0	2509	122.064150832	0.05
0	2510	122.115790427929	0.05
0	2512	122.215790427929	0.05
0	2513	122.242194175	0.05
0	2514	122.315790427929	0.05
0	2516	122.415790427929	0.05
0	2517	122.50881658	0.05
0	2518	122.515790427929	0.05
0	2520	122.615790427929	0.05
0	2522	122.715790427929	0.05
0	2523	122.73751357	0.05
0	2524	122.815790427929	0.05
0	2526	122.915790427929	0.05
0	2527	123.008894146	0.0495
0	2527	123.008894146	0.0495
0	2528	123.015790427929	0.049527585127716
0	2530	123.115790427929	0.049927585127716
0	2532	123.215790427929	0.05
0	2533	123.260098264	0.05
0	2534	123.315790427929	0.05
0	2536	123.415790427929	0.05
0	2538	123.515790427929	0.05
0	2539	123.53903032	0.05
0	2540	123.615790427929	0.05
0	2542	123.715790427929	0.05
0	2544	123.815790427929	0.05
0	2545	123.827214718	0.05
0	2546	123.915790427929	0.05
0	2548	124.015790427929	0.05
0	2549	124.08880891	0.05
0	2550	124.115790427929	0.05
0	2552	124.215790427929	0.0495
0	2552	124.215790427929	0.0495
0	2553	124.269033982	0.049712974216284
0	2554	124.315790427929	0.0499
0	2556	124.415790427929	0.05
0	2557	124.509879847	0.05
0	2558	124.515790427929	0.05
0	2560	124.615790427929	0.05
0	2562	124.715790427929	0.05
0	2563	124.746256051	0.05
0	2564	124.815790427929	0.05
0	2566	124.915790427929	0.05
0	2567	124.981127074	0.05
0	2568	125.015790427929	0.05
0	2570	125.115790427929	0.05
0	2571	125.213310796	0.05
0	2572	125.215790427929	0.05
0	2574	125.315790427929	0.05
0	2575	125.406422626	0.0495
0	2575	125.406422626	0.0495
0	2576	125.415790427929	0.049537471207716
0	2578	125.515790427929	0.049937471207716
0	2580	125.615790427929	0.05
0	2581	125.657613739	0.05
0	2582	125.715790427929	0.05
0	2584	125.815790427929	0.05
0	2585	125.891108569	0.05
0	2586	125.915790427929	0.05
0	2588	126.015790427929	0.05
0	2590	126.115790427929	0.05
0	2591	126.172220929	0.05
0	2592	126.215790427929	0.05
0	2594	126.315790427929	0.05
0	2595	126.392852689	0.05
0	2596	126.415790427929	0.05
0	2598	126.515790427929	0.05
0	2599	126.608664319	0.0495
0	2599	126.608664319	0.0495
0	2600	126.615790427929	0.049528504435716
0	2602	126.715790427929	0.049928504435716
0	2603	126.815051248	0.05
0	2604	126.815790427929	0.05
0	2606	126.915790427929	0.05
0	2607	126.950666755	0.05
0	2608	127.015790427929	0.05
0	2610	127.115790427929	0.05
0	2611	127.185029071	0.05
0	2612	127.215790427929	0.05
0	2614	127.315790427929	0.05
0	2615	127.331160577	0.05
0	2616	127.415790427929	0.05
0	2617	127.478788891	0.05
0	2618	127.515790427929	0.05
0	2620	127.615790427929	0.05
0	2622	127.715790427929	0.0495
0	2622	127.715790427929	0.0495
0	2622	127.722672133	0.049527526820284
0	2624	127.815790427929	0.0499
0	2626	127.915790427929	0.05
0	2627	127.980300346	0.05
0	2628	128.015790427929	0.05
0	2630	128.115790427929	0.05
0	2631	128.182186534	0.05
0	2632	128.215790427929	0.05
0	2634	128.315790427929	0.05
0	2635	128.37689608	0.05
0	2636	128.415790427929	0.05
0	2638	128.515790427929	0.05
0	2639	128.560673419	0.05
0	2640	128.615790427929	0.05
0	2642	128.715790427929	0.05
0	2643	128.729893216	0.05
0	2644	128.815790427929	0.0495
0	2644	128.815790427929	0.0495
0	2645	128.886135367	0.049781379756284
0	2646	128.915790427929	0.0499
0	2648	129.015790427929	0.05
0	2649	129.060239107	0.05
0	2650	129.115790427929	0.05
0	2652	129.215790427929	0.05
0	2653	129.239658109	0.05
0	2654	129.315790427929	0.05
0	2656	129.415790427929	0.05
0	2657	129.43458478	0.05
0	2658	129.515790427929	0.05
0	2660	129.615790427929	0.05
0	2661	129.635904709	0.05
0	2662	129.715790427929	0.05
0	2663	129.775963681	0.05
0	2664	129.815790427929	0.05
0	2665	129.866626864	0.0495
0	2665	129.866626864	0.0495
0	2666	129.915790427929	0.049696654255716
0	2668	130.015790427929	0.05
0	2669	130.035776062	0.05
0	2670	130.115790427929	0.05
0	2672	130.215790427929	0.05
0	2672	130.218799834	0.05
0	2674	130.315790427929	0.05
0	2676	130.415790427929	0.05
0	2677	130.431342523	0.05
0	2678	130.515790427929	0.05
0	2680	130.615790427929	0.05
0	2681	130.67668669	0.05
0	2682	130.715790427929	0.05
0	2683	130.811667958	0.05
0	2684	130.815790427929	0.05
0	2686	130.915790427929	0.05
0	2688	131.015790427929	0.0495
0	2688	131.015790427929	0.0495
0	2688	131.016478123	0.049502750780284
0	2690	131.115790427929	0.0499
0	2692	131.215790427929	0.05
0	2693	131.237949892	0.05
0	2694	131.315790427929	0.05
0	2695	131.413503526	0.05
0	2696	131.415790427929	0.05
0	2698	131.515790427929	0.05
0	2699	131.555835289	0.05
0	2700	131.615790427929	0.05
0	2701	131.704228585	0.05
0	2702	131.715790427929	0.05
0	2704	131.815790427929	0.05
0	2705	131.867042647	0.05
0	2706	131.915790427929	0.05
0	2707	132.014181259	0.05
0	2708	132.015790427929	0.0495
0	2708	132.015790427929	0.0495
0	2710	132.115790427929	0.0499
0	2711	132.192567346	0.05
0	2712	132.215790427929	0.05
0	2714	132.315790427929	0.05
0	2715	132.376100548	0.05
0	2716	132.415790427929	0.05
0	2718	132.515790427929	0.05
0	2719	132.571427746	0.05
0	2720	132.615790427929	0.05
0	2722	132.715790427929	0.05
0	2723	132.743269828	0.05
0	2724	132.815790427929	0.05
0	2726	132.915790427929	0.05
0	2727	132.931985404	0.05
0	2728	133.015790427929	0.05
0	2729	133.10679649	0.05
0	2730	133.115790427929	0.0495
0	2730	133.115790427929	0.0495
0	2731	133.207941475	0.049868604188284
0	2732	133.215790427929	0.0499
0	2733	133.299811729	0.05
0	2734	133.315790427929	0.05
0	2735	133.411934011	0.05
0	2736	133.415790427929	0.05
0	2737	133.501759504	0.05
0	2738	133.515790427929	0.05
0	2740	133.615790427929	0.05
0	2741	133.663332475	0.05
0	2742	133.715790427929	0.05
0	2744	133.815790427929	0.05
0	2745	133.835428315	0.05
0	2746	133.915790427929	0.05
0	2747	133.967653756	0.05
0	2748	134.015790427929	0.05
0	2750	134.115790427929	0.0495
0	2750	134.115790427929	0.0495
0	2751	134.131652788	0.049563449440284
0	2752	134.215790427929	0.0499
0	2753	134.272391083	0.05
0	2754	134.315790427929	0.05
0	2756	134.415790427929	0.05
0	2757	134.4412942	0.05
0	2758	134.515790427929	0.05
0	2760	134.615790427929	0.05
0	2761	134.644671118	0.05
0	2762	134.715790427929	0.05
0	2764	134.815790427929	0.05
0	2765	134.900087032	0.05
0	2766	134.915790427929	0.05
0	2768	135.015790427929	0.05
0	2770	135.115790427929	0.05
0	2771	135.186152998	0.05
0	2772	135.215790427929	0.0495
0	2772	135.215790427929	0.0495
0	2774	135.315790427929	0.0499
0	2776	135.415790427929	0.05
0	2777	135.429760195	0.05
0	2778	135.515790427929	0.05
0	2780	135.615790427929	0.05
0	2781	135.667979137	0.05
0	2782	135.715790427929	0.05
0	2784	135.815790427929	0.05
0	2785	135.875475574	0.05
0	2786	135.915790427929	0.05
0	2788	136.015790427929	0.05
0	2789	136.060893289	0.05
0	2790	136.115790427929	0.05
0	2792	136.215790427929	0.05
0	2793	136.235235835	0.05
0	2794	136.315790427929	0.05
0	2795	136.343368471	0.0495
0	2795	136.343368471	0.0495
0	2796	136.415790427929	0.049789687827716
0	2797	136.439785891	0.04988566968
0	2798	136.515790427929	0.05
0	2799	136.559625025	0.05
0	2800	136.615790427929	0.05
0	2801	136.702780861	0.05
0	2802	136.715790427929	0.05
0	2804	136.815790427929	0.05
0	2805	136.887181066	0.05
0	2806	136.915790427929	0.05
0	2808	137.015790427929	0.05
0	2809	137.104008805	0.05
0	2810	137.115790427929	0.05
0	2812	137.173938677235	0.05
0	2813	137.273571097	0.05
0	2814	137.273938677235	0.05
0	2816	137.373938677235	0.0495
0	2816	137.373938677235	0.0495
0	2817	137.42773033	0.04971516661106
0	2818	137.473938677235	0.0499
0	2819	137.548714942	0.05
0	2820	137.573938677235	0.05
0	2822	137.673938677235	0.05
0	2823	137.769637039	0.05
0	2824	137.773938677235	0.05
0	2826	137.873938677235	0.05
0	2828	137.973938677235	0.05
0	2828	138.02189098	0.05
0	2830	138.073938677235	0.05
0	2833	138.173938677235	0.05
0	2834	138.227730088	0.05
0	2835	138.273938677235	0.05
0	2837	138.373938677235	0.05
0	2839	138.473938677235	0.05
0	2839	138.478527856	0.0495
0	2839	138.478527856	0.0495
0	2841	138.573938677235	0.04988164328494
0	2843	138.673938677235	0.05
0	2843	138.710556208	0.05
0	2845	138.773938677235	0.05
0	2847	138.873938677235	0.05
0	2847	138.883252654	0.05
0	2849	138.973938677235	0.05
0	2851	139.073938677235	0.05
0	2851	139.112397988	0.05
0	2853	139.173938677235	0.05
0	2855	139.273938677235	0.05
0	2856	139.36401955	0.05
0	2857	139.373938677235	0.05
0	2859	139.473938677235	0.05
0	2861	139.573938677235	0.05
0	2861	139.600416166	0.05
0	2863	139.673938677235	0.05
0	2865	139.773938677235	0.05
0	2866	139.841483851	0.05
0	2867	139.873938677235	0.05
0	2869	139.973938677235	0.05
0	2871	140.073938677235	0.05
0	2871	140.080894021	0.05
0	2873	140.173938677235	0.05
0	2875	140.273938677235	0.05
0	2875	140.307714214	0.05
0	2877	140.373938677235	0.05
0	2879	140.473938677235	0.05
0	2880	140.555792167	0.05
0	2881	140.573938677235	0.05
0	2883	140.673938677235	0.05
0	2884	140.756823985	0.05
0	2885	140.773938677235	0.05
0	2887	140.873938677235	0.05
0	2887	140.89338718	0.05
0	2889	140.973938677235	0.05
0	2890	141.049378945	0.05
0	2891	141.073938677235	0.05
0	2893	141.173938677235	0.05
0	2894	141.242874415	0.05
0	2895	141.273938677235	0.05
0	2897	141.373938677235	0.05
0	2898	141.460481968	0.05
0	2899	141.473938677235	0.05
0	2901	141.573938677235	0.05
0	2902	141.669498751	0.05
0	2903	141.673938677235	0.05
0	2905	141.773938677235	0.05
0	2907	141.873938677235	0.05
0	2907	141.886032061	0.05
0	2909	141.973938677235	0.05
0	2911	142.073938677235	0.05
0	2911	142.123028089	0.05
0	2913	142.173938677235	0.05
0	2915	142.273938677235	0.05
0	2916	142.340304841	0.05
0	2917	142.373938677235	0.05
0	2919	142.473938677235	0.05
0	2919	142.509636472	0.05
0	2921	142.573938677235	0.05
0	2922	142.657794967	0.05
0	2923	142.673938677235	0.05
0	2925	142.773938677235	0.05
0	2926	142.844359366	0.05
0	2927	142.873938677235	0.05
0	2929	142.973938677235	0.05
0	2929	143.013617857	0.05
0	2931	143.073938677235	0.05
0	2932	143.156052709	0.05
0	2933	143.173938677235	0.05
0	2935	143.273938677235	0.05
0	2935	143.305387468	0.05
0	2937	143.373938677235	0.05
0	2939	143.473938677235	0.05
0	2939	143.499374107	0.05
0	2941	143.573938677235	0.05
0	2941	143.613403066	0.05
0	2943	143.673938677235	0.05
0	2943	143.705908861	0.05
0	2945	143.773938677235	0.05
0	2946	143.862405838	0.05
0	2947	143.873938677235	0.05
0	2949	143.973938677235	0.05
0	2949	144.021269284	0.05
0	2951	144.073938677235	0.05
0	2953	144.173938677235	0.05
0	2953	144.221524264	0.05
0	2955	144.273938677235	0.05
0	2957	144.373938677235	0.05
0	2957	144.391237933	0.05
0	2959	144.473938677235	0.05
0	2960	144.531743263	0.05
0	2961	144.573938677235	0.05
0	2963	144.673938677235	0.05
0	2963	144.696538237	0.05
0	2965	144.773938677235	0.05
0	2966	144.873156586	0.05
0	2967	144.873938677235	0.05
0	2969	144.973938677235	0.05
0	2969	145.001462203	0.05
0	2971	145.073938677235	0.05
0	2972	145.170014152	0.05
0	2973	145.173938677235	0.05
0	2975	145.273938677235	0.05
0	2976	145.361827972	0.05
0	2977	145.373938677235	0.05
0	2979	145.473938677235	0.05
0	2980	145.556537158	0.05
0	2981	145.573938677235	0.05
0	2983	145.673938677235	0.05
0	2983	145.710321358	0.05
0	2985	145.773938677235	0.05
0	2986	145.863726349	0.05
0	2987	145.873938677235	0.05
0	2989	145.973938677235	0.05
0	2990	146.032789081	0.05
0	2991	146.073938677235	0.05
0	2993	146.173938677235	0.05
0	2993	146.188717054	0.0495
0	2993	146.188717054	0.0495
0	2995	146.273938677235	0.04984088649294
0	2996	146.345341621	0.05
0	2997	146.373938677235	0.05
0	2999	146.473938677235	0.05
0	3000	146.550770368	0.05
0	3001	146.573938677235	0.05
0	3003	146.673938677235	0.05
0	3003	146.722829599	0.05
0	3005	146.773938677235	0.05
0	3007	146.873938677235	0.05
0	3007	146.920136185	0.05
0	3009	146.973938677235	0.05
0	3011	147.073938677235	0.05
0	3012	147.119290847985	0.05
0	3013	147.125393443	0.05
0	3014	147.219290847985	0.05
0	3015	147.277561612	0.0495
0	3015	147.277561612	0.0495
0	3016	147.319290847985	0.04966691694394
0	3018	147.419290847985	0.05
0	3019	147.465283	0.05
0	3020	147.519290847985	0.05
0	3022	147.619290847985	0.05
0	3024	147.719290847985	0.05
0	3026	147.819290847985	0.05
0	3027	147.840683491	0.05
0	3028	147.919290847985	0.05
0	3030	148.019290847985	0.05
0	3031	148.045289155	0.05
0	3032	148.119290847985	0.05
0	3034	148.219290847985	0.05
0	3035	148.286136004	0.05
0	3036	148.319290847985	0.05
0	3038	148.419290847985	0.05
0	3040	148.519290847985	0.0495
0	3040	148.519290847985	0.0495
0	3041	148.545482002	0.04960476461606
0	3042	148.619290847985	0.0499
0	3044	148.719290847985	0.05
0	3046	148.819290847985	0.05
0	3047	148.829919631	0.05
0	3048	148.919290847985	0.05
0	3050	149.019290847985	0.05
0	3051	149.051311567	0.05
0	3052	149.119290847985	0.05
0	3054	149.219290847985	0.05
0	3055	149.280018439	0.05
0	3056	149.319290847985	0.05
0	3058	149.419290847985	0.05
0	3059	149.517969583	0.05
0	3060	149.519290847985	0.05
0	3063	149.619290847985	0.05
0	3066	149.719290847985	0.05
0	3067	149.767752421	0.05
0	3069	149.819290847985	0.05
0	3070	149.918375764	0.05
0	3071	149.919290847985	0.05
0	3074	150.019290847985	0.05
0	3076	150.111556387	0.05
0	3077	150.119290847985	0.05
0	3080	150.219290847985	0.05
0	3081	150.24423034	0.05
0	3083	150.319290847985	0.05
0	3085	150.419290847985	0.05
0	3086	150.481104298	0.05
0	3087	150.519290847985	0.05
0	3088	150.609564193	0.05
0	3089	150.619290847985	0.05
0	3091	150.719290847985	0.05
0	3092	150.75308758	0.05
0	3093	150.819290847985	0.05
0	3095	150.919290847985	0.05
0	3096	150.924560944	0.05
0	3097	151.019290847985	0.05
0	3098	151.065889195	0.05
0	3099	151.119290847985	0.05
0	3100	151.210867228	0.05
0	3101	151.219290847985	0.05
0	3103	151.319290847985	0.05
0	3104	151.373003932	0.05
0	3105	151.419290847985	0.05
0	3106	151.500088087	0.05
0	3107	151.519290847985	0.05
0	3109	151.619290847985	0.05
0	3110	151.637019916	0.05
0	3111	151.719290847985	0.05
0	3112	151.788439462	0.05
0	3113	151.819290847985	0.05
0	3115	151.919290847985	0.05
0	3116	151.954533856	0.05
0	3117	152.019290847985	0.05
0	3118	152.115626248	0.05
0	3119	152.119290847985	0.05
0	3121	152.219290847985	0.05
0	3122	152.29847137	0.05
0	3123	152.319290847985	0.05
0	3125	152.419290847985	0.05
0	3126	152.436042595	0.05
0	3127	152.519290847985	0.05
0	3128	152.557471606	0.05
0	3129	152.619290847985	0.05
0	3130	152.651308294	0.05
0	3131	152.719290847985	0.05
0	3133	152.819290847985	0.05
0	3134	152.834083093	0.05
0	3135	152.919290847985	0.05
0	3137	153.019290847985	0.05
0	3138	153.052173772	0.05
0	3140	153.119290847985	0.05
0	3142	153.219290847985	0.05
0	3142	153.247360927	0.05
0	3144	153.319290847985	0.05
0	3145	153.419129221	0.05
0	3146	153.419290847985	0.05
0	3148	153.519290847985	0.05
0	3149	153.583225255	0.05
0	3150	153.619290847985	0.0495
0	3150	153.619290847985	0.0495
0	3152	153.719290847985	0.0499
0	3153	153.801943315	0.05
0	3154	153.819290847985	0.05
0	3156	153.919290847985	0.05
0	3158	154.019290847985	0.05
0	3158	154.035933388	0.05
0	3160	154.08384925562	0.05
0	3161	154.175560099	0.05
0	3162	154.18384925562	0.05
0	3164	154.28384925562	0.05
0	3164	154.32025894	0.05
0	3166	154.38384925562	0.05
0	3166	154.413184795	0.05
0	3168	154.48384925562	0.05
0	3168	154.523234197	0.05
0	3170	154.58384925562	0.05
0	3170	154.612176955	0.05
0	3172	154.68384925562	0.05
0	3172	154.728272347	0.05
0	3174	154.78384925562	0.05
0	3174	154.822150351	0.05
0	3176	154.88384925562	0.05
0	3176	154.942373878	0.05
0	3178	154.98384925562	0.05
0	3178	155.034259474	0.05
0	3180	155.08384925562	0.05
0	3180	155.157781222	0.05
0	3182	155.18384925562	0.05
0	3182	155.247239641	0.05
0	3184	155.28384925562	0.05
0	3184	155.367163276	0.05
0	3186	155.38384925562	0.05
0	3186	155.45861707	0.05
0	3188	155.48384925562	0.0495
0	3188	155.48384925562	0.0495
0	3190	155.58384925562	0.0499
0	3190	155.646033496	0.05
0	3192	155.68384925562	0.05
0	3193	155.771425324	0.05
0	3194	155.78384925562	0.05
0	3194	155.866712995	0.05
0	3196	155.88384925562	0.05
0	3198	155.98384925562	0.05
0	3198	155.991232423	0.05
0	3200	156.08384925562	0.05
0	3200	156.097628758	0.05
0	3202	156.18384925562	0.05
0	3202	156.263853415	0.05
0	3204	156.28384925562	0.05
0	3206	156.38384925562	0.05
0	3206	156.44766703	0.05
0	3208	156.48384925562	0.0495
0	3208	156.48384925562	0.0495
0	3210	156.58384925562	0.0499
0	3210	156.608097781	0.04999699410152
0	3212	156.68384925562	0.05
0	3213	156.774473104	0.05
0	3214	156.78384925562	0.05
0	3216	156.88384925562	0.05
0	3216	156.939053764	0.05
0	3218	156.98384925562	0.05
0	3220	157.08384925562	0.05
0	3220	157.101366886	0.05
0	3222	157.18384925562	0.05
0	3222	157.260192574	0.05
0	3224	157.28384925562	0.05
0	3226	157.38384925562	0.05
0	3226	157.385068513	0.05
0	3227	157.479373819	0.05
0	3228	157.48384925562	0.0495
0	3228	157.48384925562	0.0495
0	3230	157.58384925562	0.0499
0	3230	157.656159613	0.05
0	3232	157.68384925562	0.05
0	3234	157.78384925562	0.05
0	3234	157.784369227	0.05
0	3236	157.88384925562	0.05
0	3236	157.895220859	0.05
0	3237	157.983080701	0.05
0	3238	157.98384925562	0.05
0	3240	158.08384925562	0.05
0	3240	158.094954763	0.05
[...]
2	8535	414.531350648622	0.05
2	8536	414.589016728	0.05
2	8537	414.631350648622	0.05
2	8539	414.731350648622	0.05
2	8540	414.786361846	0.05
2	8541	414.831350648622	0.05
2	8543	414.931350648622	0.05
2	8544	414.969433729	0.05
2	8545	415.031350648622	0.05
2	8547	415.131350648622	0.05
2	8547	415.139950963	0.05
2	8549	415.231350648622	0.05
2	8550	415.299479425	0.05
2	8551	415.331350648622	0.05
2	8552	415.425891067	0.05
2	8553	415.431350648622	0.0495
2	8553	415.431350648622	0.0495
2	8554	415.524615175	0.049873058105512
2	8555	415.531350648622	0.0499
2	8557	415.631350648622	0.05
2	8557	415.653513946	0.05
2	8559	415.731350648622	0.05
2	8560	415.805907436	0.05
2	8561	415.831350648622	0.05
2	8563	415.931350648622	0.05
2	8564	416.003739169	0.05
2	8565	416.031350648622	0.05
2	8567	416.131350648622	0.05
2	8567	416.142826447	0.05
2	8569	416.231350648622	0.05
2	8570	416.285909947	0.05
2	8571	416.331350648622	0.05
2	8573	416.431350648622	0.05
2	8574	416.478781123	0.05
2	8575	416.531350648622	0.05
2	8577	416.631350648622	0.05
2	8577	416.645924272	0.05
2	8579	416.731350648622	0.05
2	8580	416.814273676	0.05
2	8581	416.831350648622	0.05
2	8583	416.931350648622	0.05
2	8584	417.002657473	0.05
2	8585	417.031350648622	0.05
2	8587	417.131350648622	0.05
2	8587	417.137410951	0.05
2	8589	417.231350648622	0.05
2	8590	417.304142353	0.05
2	8591	417.331350648622	0.05
2	8592	417.430298491	0.05
2	8593	417.431350648622	0.05
2	8595	417.531350648622	0.0495
2	8595	417.531350648622	0.0495
2	8595	417.546028828	0.049558712717512
2	8597	417.631350648622	0.0499
2	8597	417.657986059	0.05
2	8599	417.731350648622	0.05
2	8599	417.757418956	0.05
2	8601	417.831350648622	0.05
2	8603	417.931350648622	0.05
2	8603	417.963314305	0.05
2	8605	418.031350648622	0.05
2	8607	418.131350648622	0.05
2	8608	418.193176195	0.05
2	8609	418.231350648622	0.05
2	8611	418.331350648622	0.05
2	8613	418.431350648622	0.05
2	8614	418.511537407	0.05
2	8615	418.531350648622	0.05
2	8617	418.631350648622	0.0495
2	8617	418.631350648622	0.0495
2	8618	418.683007456	0.049706627229512
2	8619	418.731350648622	0.0499
2	8620	418.825046854	0.05
2	8621	418.831350648622	0.05
2	8623	418.931350648622	0.05
2	8625	419.031350648622	0.05
2	8626	419.096101042	0.05
2	8627	419.131350648622	0.05
2	8629	419.231350648622	0.05
2	8629	419.246744155	0.05
2	8631	419.331350648622	0.05
2	8632	419.416470178	0.05
2	8633	419.431350648622	0.05
2	8635	419.531350648622	0.05
2	8635	419.561062909	0.05
2	8637	419.631350648622	0.05
2	8639	419.731350648622	0.0495
2	8639	419.731350648622	0.0495
2	8640	419.785745074	0.049717577701512
2	8641	419.831350648622	0.0499
2	8643	419.931350648622	0.05
2	8644	420.031057435	0.05
2	8645	420.031350648622	0.05
2	8647	420.131350648622	0.05
2	8649	420.231350648622	0.05
2	8650	420.281006773	0.05
2	8651	420.331350648622	0.05
2	8653	420.431350648622	0.05
2	8653	420.434015152	0.05
2	8655	420.531350648622	0.05
2	8657	420.631350648622	0.05
2	8658	420.697250344	0.05
2	8659	420.731350648622	0.05
2	8661	420.831350648622	0.05
2	8663	420.931350648622	0.0495
2	8663	420.931350648622	0.0495
2	8663	420.933448579	0.049508391721512
2	8665	420.980240014165	0.049695557462172
2	8666	421.031350648622	0.049695557462172
2	8668	421.131350648622	0.049695557462172
2	8668	421.15960639	0.049695557462172
2	8670	421.231350648622	0.049695557462172
2	8672	421.331350648622	0.049695557462172
2	8673	421.374705904	0.049695557462172
2	8674	421.431350648622	0.049695557462172
2	8676	421.531350648622	0.049695557462172
2	8678	421.631350648622	0.049695557462172
2	8678	421.639986847	0.049695557462172
2	8680	421.731350648622	0.049695557462172
2	8682	421.831350648622	0.049695557462172
2	8682	421.84401913	0.049695557462172
2	8684	421.931350648622	0.049695557462172
2	8685	422.030278642	0.04919860188755
2	8685	422.030278642	0.04919860188755
2	8686	422.031350648622	0.04919860188755
2	8688	422.131350648622	0.04919860188755
2	8690	422.231350648622	0.04919860188755
2	8690	422.261761939	0.04919860188755
2	8692	422.331350648622	0.04919860188755
2	8694	422.431350648622	0.04919860188755
2	8695	422.494170619	0.04919860188755
2	8696	422.531350648622	0.04919860188755
2	8698	422.631350648622	0.04919860188755
2	8701	422.731350648622	0.04919860188755
2	8701	422.759437447	0.04919860188755
2	8704	422.831350648622	0.04919860188755
2	8707	422.931350648622	0.04919860188755
2	8708	422.981386231	0.04919860188755
2	8710	423.031350648622	0.04919860188755
2	8712	423.131350648622	0.04919860188755
2	8714	423.228950671	0.04919860188755
2	8715	423.231350648622	0.04919860188755
2	8718	423.331350648622	0.04919860188755
2	8721	423.431350648622	0.04919860188755
2	8722	423.471984346	0.04919860188755
2	8724	423.531350648622	0.04919860188755
2	8726	423.631350648622	0.04919860188755
2	8728	423.66864208	0.04919860188755
2	8729	423.731350648622	0.04919860188755
2	8732	423.831350648622	0.04919860188755
2	8734	423.90597157	0.04919860188755
2	8735	423.931350648622	0.04919860188755
2	8737	424.031350648622	0.048706615868675
2	8737	424.031350648622	0.048706615868675
2	8739	424.131350648622	0.048706615868675
2	8739	424.133630236	0.048706615868675
2	8741	424.231350648622	0.048706615868675
2	8742	424.311347386	0.048706615868675
2	8743	424.331350648622	0.048706615868675
2	8745	424.431350648622	0.048706615868675
2	8747	424.531350648622	0.048706615868675
2	8747	424.5455797	0.048706615868675
2	8749	424.631350648622	0.048706615868675
2	8751	424.731350648622	0.048706615868675
2	8752	424.775989873	0.048706615868675
2	8753	424.831350648622	0.048706615868675
2	8755	424.931350648622	0.048706615868675
2	8756	425.002366093	0.048706615868675
2	8757	425.031350648622	0.048706615868675
2	8759	425.131350648622	0.048706615868675
2	8759	425.163037771	0.048219549709988
2	8759	425.163037771	0.048219549709988
2	8761	425.231350648622	0.048219549709988
2	8763	425.331350648622	0.048219549709988
2	8763	425.348581471	0.048219549709988
2	8765	425.431350648622	0.048219549709988
2	8767	425.531350648622	0.048219549709988
2	8768	425.600995993	0.048219549709988
2	8769	425.631350648622	0.048219549709988
2	8771	425.731350648622	0.048219549709988
2	8771	425.763798613	0.048219549709988
2	8773	425.831350648622	0.048219549709988
2	8775	425.931350648622	0.048219549709988
2	8776	425.969949886	0.048219549709988
2	8777	426.031350648622	0.048219549709988
2	8779	426.123923649702	0.048219549709988
2	8780	426.131350648622	0.048249257705668
2	8782	426.194036222205	0.0485
2	8782	426.227921161	0.04863553975518
2	8783	426.231350648622	0.048162765128611
2	8783	426.231350648622	0.048162765128611
2	8785	426.319036222205	0.049
2	8786	426.331350648622	0.049049257705668
2	8788	426.431350648622	0.049449257705668
2	8788	426.441686236	0.04949060005518
2	8789	426.444036222205	0.0495
2	8791	426.531350648622	0.049849257705668
2	8793	426.569036222205	0.05
2	8793	426.595418134	0.05
2	8794	426.631350648622	0.05
2	8796	426.731350648622	0.05
2	8797	426.812899153	0.05
2	8798	426.831350648622	0.05
2	8800	426.931350648622	0.05
2	8801	426.998670406	0.05
2	8802	427.031350648622	0.05
2	8804	427.131350648622	0.05
2	8804	427.139258803	0.05
2	8806	427.231350648622	0.05
2	8808	427.331350648622	0.05
2	8809	427.39536439	0.05
2	8810	427.431350648622	0.05
2	8812	427.531350648622	0.05
2	8814	427.631350648622	0.05
2	8814	427.638868048	0.05
2	8816	427.731350648622	0.05
2	8818	427.831350648622	0.05
2	8819	427.887480385	0.05
2	8820	427.931350648622	0.05
2	8822	428.031350648622	0.05
2	8823	428.111628616	0.05
2	8824	428.131350648622	0.05
2	8826	428.231350648622	0.05
2	8828	428.331350648622	0.05
2	8829	428.374902775	0.05
2	8830	428.431350648622	0.05
2	8832	428.531350648622	0.05
2	8833	428.622102565	0.05
2	8834	428.631350648622	0.05
2	8836	428.731350648622	0.05
2	8837	428.817006337	0.05
2	8838	428.831350648622	0.05
2	8840	428.931350648622	0.05
2	8841	429.009541315	0.05
2	8842	429.031350648622	0.05
2	8844	429.131350648622	0.05
2	8845	429.209459818	0.05
2	8846	429.231350648622	0.05
2	8848	429.331350648622	0.05
2	8850	429.431350648622	0.05
2	8850	429.46434079	0.05
2	8852	429.531350648622	0.05
2	8854	429.631350648622	0.05
2	8855	429.682962259	0.05
2	8856	429.731350648622	0.05
2	8858	429.831350648622	0.05
2	8858	429.858438523	0.05
2	8860	429.931350648622	0.05
2	8862	430.031350648622	0.05
2	8863	430.077099598	0.05
2	8864	430.131350648622	0.05
2	8866	430.231350648622	0.05
2	8866	430.253821516	0.05
2	8868	430.331350648622	0.05
2	8869	430.403090545	0.05
2	8870	430.431350648622	0.05
2	8872	430.531350648622	0.05
2	8873	430.576438198	0.05
2	8874	430.631350648622	0.05
2	8875	430.721361475	0.0495
2	8875	430.721361475	0.0495
2	8876	430.731350648622	0.049539956694488
2	8878	430.831350648622	0.049939956694488
2	8880	430.931350648622	0.05
2	8881	430.992841297	0.05
2	8882	431.031350648622	0.05
2	8884	431.131350648622	0.05
2	8885	431.203665892	0.05
2	8886	431.231350648622	0.05
2	8888	431.331350648622	0.05
2	8889	431.384681428	0.05
2	8890	431.431350648622	0.05
2	8892	431.531350648622	0.05
2	8892	431.558006077	0.05
2	8894	431.631350648622	0.05
2	8895	431.704259242	0.05
2	8896	431.731350648622	0.05
2	8898	431.831350648622	0.05
2	8899	431.884808155	0.05
2	8900	431.931350648622	0.05
2	8901	432.030068563	0.05
2	8902	432.031350648622	0.05
2	8904	432.131350648622	0.05
2	8906	432.231350648622	0.05
2	8907	432.28384735	0.05
2	8908	432.331350648622	0.05
2	8910	432.431350648622	0.05
2	8911	432.507957082	0.05
2	8912	432.531350648622	0.05
2	8914	432.631350648622	0.05
2	8915	432.718753741	0.05
2	8916	432.731350648622	0.05
2	8918	432.831350648622	0.05
2	8919	432.908601595	0.05
2	8920	432.931350648622	0.05
2	8922	433.031350648622	0.05
2	8923	433.077991069	0.05
2	8924	433.131350648622	0.05
2	8926	433.231350648622	0.05
2	8927	433.282529578	0.05
2	8928	433.331350648622	0.05
2	8930	433.431350648622	0.05
2	8930	433.461369382	0.05
2	8932	433.531350648622	0.05
2	8933	433.62525217	0.05
2	8934	433.631350648622	0.05
2	8936	433.731350648622	0.05
2	8937	433.829496961	0.05
2	8938	433.831350648622	0.05
2	8940	433.931350648622	0.05
2	8942	434.031350648622	0.05
2	8943	434.116971802	0.0495
2	8943	434.116971802	0.0495
2	8944	434.131350648622	0.049557515386488
2	8946	434.231350648622	0.049957515386488
2	8947	434.324351869	0.05
2	8948	434.331350648622	0.05
2	8949	434.419962337	0.05
2	8950	434.431350648622	0.05
2	8952	434.531350648622	0.05
2	8952	434.550622546	0.05
2	8954	434.631350648622	0.05
2	8954	434.663146825	0.05
2	8956	434.731350648622	0.05
2	8958	434.831350648622	0.05
2	8959	434.911241338	0.05
2	8960	434.931350648622	0.05
2	8962	435.031350648622	0.05
2	8964	435.131350648622	0.05
2	8965	435.198145486	0.0495
2	8965	435.198145486	0.0495
2	8966	435.231350648622	0.049632820650488
2	8968	435.331350648622	0.05
2	8970	435.431350648622	0.05
2	8970	435.442518403	0.05
2	8972	435.531350648622	0.05
2	8973	435.6291229	0.05
2	8974	435.631350648622	0.05
2	8976	435.731350648622	0.05
2	8978	435.831350648622	0.05
2	8979	435.861886315	0.05
2	8980	435.931350648622	0.05
2	8982	436.031350648622	0.05
2	8983	436.096525387	0.05
2	8984	436.131350648622	0.05
2	8986	436.231350648622	0.05
2	8986	436.237590007	0.05
2	8988	436.331350648622	0.05
2	8990	436.431350648622	0.05
2	8991	436.494174706	0.05
2	8992	436.531350648622	0.05
2	8994	436.631350648622	0.05
2	8995	436.726326973	0.05
2	8996	436.731350648622	0.05
2	8998	436.831350648622	0.05
2	8999	436.871282944	0.05
2	9000	436.931350648622	0.05
2	9002	437.031350648622	0.05
2	9002	437.040645463	0.05
2	9004	437.131350648622	0.05
2	9006	437.231350648622	0.05
2	9007	437.284404757	0.05
2	9008	437.331350648622	0.05
2	9009	437.429772745	0.05
2	9010	437.431350648622	0.05
2	9012	437.531350648622	0.05
2	9014	437.631350648622	0.05
2	9015	437.662060489	0.05
2	9016	437.731350648622	0.05
2	9018	437.831350648622	0.05
2	9019	437.90539483	0.05
2	9020	437.931350648622	0.05
2	9022	438.031350648622	0.05
2	9024	438.131350648622	0.05
2	9025	438.153910396	0.05
2	9026	438.231350648622	0.05
2	9028	438.331350648622	0.05
2	9029	438.372832642	0.05
2	9030	438.431350648622	0.05
2	9032	438.531350648622	0.05
2	9033	438.62014432	0.05
2	9034	438.631350648622	0.05
2	9036	438.731350648622	0.05
2	9038	438.831350648622	0.05
2	9039	438.848218939	0.05
2	9040	438.931350648622	0.05
2	9041	438.99432841	0.05
2	9042	439.031350648622	0.05
2	9044	439.131350648622	0.05
2	9045	439.160589283	0.05
2	9046	439.231350648622	0.05
2	9047	439.304041306	0.05
2	9048	439.331350648622	0.05
2	9050	439.431350648622	0.05
2	9052	439.531350648622	0.05
2	9053	439.563146827	0.05
2	9054	439.631350648622	0.05
2	9055	439.708031395	0.05
2	9056	439.731350648622	0.05
2	9058	439.831350648622	0.05
2	9059	439.88982685	0.05
2	9060	439.931350648622	0.05
2	9062	440.031350648622	0.05
2	9062	440.035380208	0.05
2	9064	440.131350648622	0.05
2	9066	440.231350648622	0.05
2	9067	440.257726828	0.05
2	9068	440.331350648622	0.05
2	9070	440.431350648622	0.05
2	9071	440.518853848	0.05
2	9072	440.531350648622	0.05
2	9074	440.631350648622	0.05
2	9075	440.715405967	0.05
2	9076	440.731350648622	0.05
2	9078	440.831350648622	0.05
2	9079	440.900617978	0.0495
2	9079	440.900617978	0.0495
2	9080	440.931350648622	0.049622930682488
2	9082	441.031350648622	0.05
2	9084	441.131350648622	0.05
2	9084	441.143534062	0.05
2	9086	441.231350648622	0.05
2	9088	441.331350648622	0.05
2	9089	441.368831062	0.05
2	9090	441.431350648622	0.05
2	9092	441.531350648622	0.05
2	9093	441.608081974	0.05
2	9094	441.631350648622	0.05
2	9096	441.731350648622	0.05
2	9097	441.764751289	0.05
2	9098	441.831350648622	0.05
2	9099	441.916888249	0.05
2	9100	441.931350648622	0.05
2	9102	442.031350648622	0.05
2	9103	442.077042073	0.05
2	9104	442.131350648622	0.05
2	9106	442.231350648622	0.05
2	9107	442.249156723	0.05
2	9108	442.331350648622	0.05
2	9109	442.397293267	0.05
2	9110	442.431350648622	0.05
2	9111	442.495238068	0.05
2	9112	442.531350648622	0.05
2	9113	442.628819404	0.05
2	9114	442.631350648622	0.05
2	9116	442.731350648622	0.05
2	9117	442.769299813	0.05
2	9118	442.831350648622	0.05
2	9119	442.866797086	0.05
2	9120	442.931350648622	0.05
2	9121	443.003077864	0.0495
2	9121	443.003077864	0.0495
2	9122	443.031350648622	0.049613091138488
2	9124	443.131350648622	0.05
2	9125	443.1748792	0.05
2	9126	443.231350648622	0.05
2	9128	443.331350648622	0.05
2	9129	443.347169308	0.05
2	9130	443.431350648622	0.05
2	9131	443.513581492	0.05
2	9132	443.531350648622	0.05
2	9134	443.631350648622	0.05
2	9135	443.729566189	0.05
2	9136	443.731350648622	0.05
2	9138	443.831350648622	0.05
2	9139	443.886146425	0.05
2	9140	443.931350648622	0.05
2	9142	444.031350648622	0.05
2	9143	444.078299674	0.0495
2	9143	444.078299674	0.0495
2	9144	444.131350648622	0.049712203898488
2	9145	444.21744709	0.05
2	9146	444.231350648622	0.05
2	9148	444.331350648622	0.05
2	9149	444.365956384	0.05
2	9150	444.431350648622	0.05
2	9151	444.508359553	0.05
2	9152	444.531350648622	0.05
2	9154	444.631350648622	0.05
2	9155	444.665138203	0.05
2	9156	444.731350648622	0.05
2	9157	444.825498115	0.05
2	9158	444.831350648622	0.05
2	9160	444.931350648622	0.05
2	9161	444.977271097	0.05
2	9162	445.031350648622	0.05
2	9163	445.108739881	0.0495
2	9163	445.108739881	0.0495
2	9164	445.131350648622	0.049590443070488
2	9166	445.231350648622	0.049990443070488
2	9166	445.241619181	0.05
2	9168	445.331350648622	0.05
2	9168	445.343266099	0.05
2	9170	445.431350648622	0.05
2	9171	445.469299261	0.05
2	9172	445.531350648622	0.05
2	9173	445.604933602	0.05
2	9174	445.631350648622	0.05
2	9176	445.731350648622	0.05
2	9176	445.741011892	0.05
2	9178	445.831350648622	0.05
2	9179	445.912145473	0.05
2	9180	445.931350648622	0.05
2	9182	446.031350648622	0.05
2	9183	446.090088658	0.0495
2	9183	446.090088658	0.0495
2	9184	446.131350648622	0.049665047962488
2	9186	446.231350648622	0.05
2	9186	446.240366965	0.05
2	9188	446.331350648622	0.05
2	9189	446.40276961	0.05
2	9190	446.431350648622	0.05
2	9192	446.531350648622	0.05
2	9193	446.549904424	0.05
2	9194	446.631350648622	0.05
2	9195	446.704978729	0.05
2	9196	446.731350648622	0.05
2	9199	446.831350648622	0.05
2	9199	446.837277967	0.05
2	9201	446.931350648622	0.05
2	9202	446.958704449	0.05
2	9203	447.031350648622	0.05
2	9204	447.057531931	0.05
2	9205	447.131350648622	0.05
2	9206	447.220176316	0.05
2	9207	447.231350648622	0.05
2	9209	447.331350648622	0.05
2	9210	447.381070558	0.05
2	9211	447.431350648622	0.05
2	9213	447.531350648622	0.05
2	9214	447.570520111	0.05
2	9215	447.631350648622	0.05
2	9217	447.731350648622	0.05
2	9218	447.765144766	0.05
2	9219	447.831350648622	0.05
2	9221	447.931350648622	0.05
2	9223	448.031350648622	0.05
2	9225	448.131350648622	0.05
2	9227	448.231350648622	0.05
2	9229	448.331350648622	0.0495
2	9229	448.331350648622	0.0495
2	9230	448.422863854	0.049866052821512
2	9231	448.431350648622	0.0499
2	9233	448.531350648622	0.05
2	9235	448.631350648622	0.05
2	9237	448.731350648622	0.05
2	9239	448.831350648622	0.05
2	9241	448.931350648622	0.05
2	9243	449.031350648622	0.05
2	9244	449.056715023	0.05
2	9245	449.131350648622	0.05
2	9247	449.231350648622	0.05
2	9249	449.331350648622	0.05
2	9251	449.431350648622	0.05
2	9251	449.441599987	0.05
2	9253	449.531350648622	0.05
2	9255	449.631350648622	0.05
2	9257	449.731350648622	0.0495
2	9257	449.731350648622	0.0495
2	9259	449.831350648622	0.0499
2	9261	449.931350648622	0.05
2	9262	449.950746982	0.05
2	9263	450.031350648622	0.05
2	9265	450.131350648622	0.05
2	9266	450.14926096	0.05
2	9267	450.231350648622	0.05
2	9269	450.331350648622	0.05
2	9270	450.402676051	0.05
2	9271	450.431350648622	0.05
2	9273	450.531350648622	0.05
2	9275	450.631350648622	0.05
2	9276	450.663912601	0.05
2	9277	450.731350648622	0.05
2	9279	450.831350648622	0.05
2	9281	450.909502702456	0.05
2	9282	450.951445576	0.05
2	9283	451.009502702456	0.05
2	9285	451.109502702456	0.05
2	9287	451.209502702456	0.05
2	9287	451.231836829	0.05
2	9289	451.309502702456	0.05
2	9291	451.409502702456	0.05
2	9292	451.466587063	0.05
2	9293	451.509502702456	0.05
2	9295	451.609502702456	0.05
2	9297	451.709502702456	0.05
2	9299	451.809502702456	0.05
2	9301	451.909502702456	0.05
2	9303	452.009502702456	0.05
2	9305	452.109502702456	0.05
2	9307	452.209502702456	0.05
2	9309	452.309502702456	0.05
2	9310	452.347952056	0.05
2	9311	452.409502702456	0.05
2	9313	452.509502702456	0.05
2	9314	452.576998744	0.05
3	0	0	0.004
3	950	46.974101355068	0
3	1170	57.818256092736	0.004
3	1772	87.5474579554	0
3	2417	118.412623608981	0.004
3	2832	138.158997515516	0
3	3062	149.564449601188	0.004
3	3294	160.677197122427	0
3	3382	165.069821316619	0.004
3	3520	171.512729698222	0
3	3808	185.756335580661	0.004
3	3968	193.30247123599	0
3	4016	195.649726340811	0.004
3	4493	219.431103993705	0
3	5543	271.104851401104	0.004
3	5668	275.342565930928	0
3	6659	324.499020404207	0.004
3	6997	340.009370010711	0
3	7515	365.791691736379	0.004
3	7699	373.975375389769	0
3	7842	380.670240349829	0.004
3	7879	382.160590775686	0
3	8090	392.64064693226	0.004
3	8665	420.980240014165	0
3	8779	426.123923649702	0.004
4	0	0	0.004
4	461	23.08057828677	0
4	588	29.329348703014	0.004
4	675	33.341451386968	0
4	706	34.886855103173	0.004
4	993	49.018237135957	0
4	1873	92.563587672516	0.004
4	2151	105.528452581365	0
4	2309	113.412573980296	0.004
4	3255	158.812808642731	0
4	3430	167.188932354266	0.004
4	3820	186.169362634101	0
4	4665	228.009567741009	0.004
4	4728	230.423350364682	0
4	5645	274.698068243049	0.004
4	6497	316.595081304796	0
4	6546	319.017472100479	0.004
4	7072	343.77652078611	0
4	7647	372.155623037772	0.004
4	8002	388.271854946886	0
4	8700	422.704412847809	0.004
4	9198	446.755823038933	0
5	0	0	0.004
5	950	46.974101355068	0
5	1170	57.818256092736	0.004
5	1772	87.5474579554	0
5	2417	118.412623608981	0.004
5	2832	138.158997515516	0
5	3062	149.564449601188	0.004
5	3294	160.677197122427	0
5	3382	165.069821316619	0.004
5	3520	171.512729698222	0
5	3808	185.756335580661	0.004
5	3968	193.30247123599	0
5	4016	195.649726340811	0.004
5	4493	219.431103993705	0
5	5543	271.104851401104	0.004
5	5668	275.342565930928	0
5	6659	324.499020404207	0.004
5	6997	340.009370010711	0
5	7515	365.791691736379	0.004
5	7699	373.975375389769	0
5	7842	380.670240349829	0.004
5	7879	382.160590775686	0
5	8090	392.64064693226	0.004
5	8665	420.980240014165	0
5	8779	426.123923649702	0.004

