version 2
run Mysterio_ex2-0-20210809-11:30:57-8093
attr configname Mysterio_ex2
attr datetime 20210809-11:30:57
attr experiment Mysterio_ex2
attr inifile omnetpp.ini
attr iterationvars ""
attr iterationvarsf ""
attr measurement ""
attr network MysterioCommunication2
attr processid 8093
attr repetition 0
attr replication #0
attr resultdir results
attr runnumber 0
attr seedset 0
param *.host[*].mobility.numeroDrones 2
param *.numHosts 2
param *.host[*].osgModel "\"3d/drone.ive.100.scale.0,0,90.rot\""
param *.basestation.osgModel "\"3d/car.ive.50.scale.0,0,90.rot\""
param *.canvasVisualizer.energyStorageVisualizer.displayEnergyStorages true
param *.host[*].hasStatus true
param *.host[*].energyStorage.typename "\"SimpleEpEnergyStorage\""
param *.host[*].wlan[*].radio.energyConsumer.typename "\"StateBasedEpEnergyConsumer\""
param *.host[*].energyManagement.typename "\"SimpleEpEnergyManagement\""
param *.host[*].energyStorage.nominalCapacity 0.05J
param *.host[*].energyManagement.nodeShutdownCapacity "0.1 * energyStorage.nominalCapacity"
param *.host[*].energyManagement.nodeStartCapacity "0.5 * energyStorage.nominalCapacity"
param *.host[*].energyStorage.initialCapacity 0.05J
param *.host[*].energyGenerator.typename "\"AlternatingEpEnergyGenerator\""
param *.host[*].energyGenerator.powerGeneration 4mW
param *.host[*].energyGenerator.sleepInterval exponential(25s)
param *.host[*].energyGenerator.generationInterval exponential(25s)
param *.host[*].mobility.typename "\"UAVMobility\""
param *.host[*].mobility.changeInterval 1s
param *.host[*].mobility.initialMovementHeading "uniform(0deg, 360deg)"
param *.host[*].mobility.initialMovementElevation "uniform(-90deg, 90deg)"
param *.host[*].mobility.angleDelta uniform(-10deg,10deg)
param *.host[*].mobility.rotationAxisAngle uniform(-10deg,10deg)
param *.host[*].mobility.speed uniform(10mps,20mps)
param *.host[*].mobility.faceForward false
param *.host[*].mobility.initialX 220m
param *.host[*].mobility.initialY 220m
param *.host[*].mobility.initialZ 80m
param *.visualizer.osgVisualizer.typename "\"IntegratedOsgVisualizer\""
param *.visualizer.osgVisualizer.sceneVisualizer.clearColor "\"skyblue\""
param *.visualizer.osgVisualizer.sceneVisualizer.sceneImage "\"showcases/desert\""
param *.visualizer.osgVisualizer.sceneVisualizer.sceneImageSize 5000m
param *.visualizer.osgVisualizer.sceneVisualizer.axisLength 1000m
param *.visualizer.osgVisualizer.sceneVisualizer.sceneMinX -2000m
param *.visualizer.osgVisualizer.sceneVisualizer.sceneMinY -2000m
param *.visualizer.osgVisualizer.sceneVisualizer.sceneMinZ 0m
param *.visualizer.osgVisualizer.sceneVisualizer.sceneMaxX 3000m
param *.visualizer.osgVisualizer.sceneVisualizer.sceneMaxY 3000m
param *.visualizer.osgVisualizer.sceneVisualizer.sceneMaxZ 1000m
param *.visualizer.osgVisualizer.networkNodeVisualizer.displayModuleName false
param *.visualizer.*.mobilityVisualizer.displayMobility true
param *.visualizer.*.mobilityVisualizer.displayPositions true
param *.visualizer.*.mobilityVisualizer.displayOrientations false
param *.visualizer.*.mobilityVisualizer.displayVelocities true
param *.visualizer.*.mobilityVisualizer.displayMovementTrails true
param *.visualizer.*.mobilityVisualizer.animationSpeed 1
param **.constraintAreaMinX 0m
param **.constraintAreaMinY 0m
param **.constraintAreaMinZ 0m
param **.constraintAreaMaxX 1000m
param **.constraintAreaMaxY 1000m
param **.constraintAreaMaxZ 1000m
param **.networkConfiguratorModule "\"\""

vector 0 MysterioCommunication2.host[0].energyStorage residualEnergyCapacity:vector ETV
attr interpolationmode linear
attr source residualEnergyCapacityChanged
attr title "Residual energy capacity, vector"
vector 1 MysterioCommunication2.host[0].energyGenerator powerGeneration:vector ETV
attr interpolationmode sample-hold
attr source powerGenerationChanged
attr title "Power generation, vector"
vector 2 MysterioCommunication2.host[1].energyStorage residualEnergyCapacity:vector ETV
attr interpolationmode linear
attr source residualEnergyCapacityChanged
attr title "Residual energy capacity, vector"
vector 3 MysterioCommunication2.host[1].energyGenerator powerGeneration:vector ETV
attr interpolationmode sample-hold
attr source powerGenerationChanged
attr title "Power generation, vector"
vector 4 MysterioCommunication2.host[0].energyStorage powerGeneration:vector ETV
attr interpolationmode sample-hold
attr source powerGenerationChanged
attr title "Power generation, vector"
vector 5 MysterioCommunication2.host[1].energyStorage powerGeneration:vector ETV
attr interpolationmode sample-hold
attr source powerGenerationChanged
attr title "Power generation, vector"
0	0	0	0.05
0	0	0.1	0.05
0	2	0.119826152	0.05
0	3	0.2	0.05
0	4	0.213415339	0.05
0	4	0.287540552	0.05
0	5	0.3	0.05
0	6	0.381023781	0.05
0	7	0.4	0.05
0	8	0.467042943	0.05
0	9	0.5	0.05
0	11	0.6	0.05
0	12	0.658016643	0.05
0	13	0.7	0.05
0	14	0.744090506	0.05
0	15	0.8	0.05
0	16	0.887073685	0.0495
0	16	0.887073685	0.0495
0	17	0.9	0.04955170526
0	19	1	0.04995170526
0	20	1.026529894	0.05
0	21	1.1	0.05
0	22	1.1218769	0.05
0	23	1.2	0.05
0	24	1.206209462	0.05
0	25	1.3	0.05
0	26	1.331640777	0.05
0	27	1.4	0.05
0	28	1.423095971	0.05
0	29	1.5	0.05
0	30	1.549064175	0.05
0	31	1.6	0.05
0	32	1.630914543	0.05
0	33	1.7	0.05
0	34	1.780175141	0.0495
0	34	1.780175141	0.0495
0	35	1.8	0.049579299436
0	36	1.858717942	0.049814171204
0	37	1.9	0.049979299436
0	38	1.930084701	0.05
0	39	2	0.05
0	40	2.003773193	0.05
0	41	2.1	0.05
0	42	2.137907517	0.05
0	43	2.2	0.05
0	44	2.229871144	0.05
0	45	2.3	0.05
0	46	2.308530427	0.05
0	47	2.4	0.05
0	48	2.439063427	0.05
0	49	2.5	0.05
0	50	2.578449375	0.05
0	51	2.6	0.05
0	53	2.7	0.05
0	54	2.738618793	0.05
0	55	2.8	0.05
0	56	2.892370985	0.05
0	57	2.9	0.05
0	58	2.987919296	0.05
0	59	3	0.05
0	61	3.1	0.05
0	62	3.122421869	0.05
0	62	3.191455975	0.05
0	63	3.2	0.05
0	65	3.3	0.05
0	66	3.323185147	0.05
0	67	3.4	0.05
0	68	3.463157302	0.05
0	69	3.5	0.05
0	70	3.528528605	0.0495
0	70	3.528528605	0.0495
0	71	3.6	0.04978588558
0	72	3.628397385	0.04989947512
0	73	3.7	0.05
0	75	3.8	0.05
0	76	3.819290941	0.05
0	77	3.9	0.05
0	78	3.909217553	0.05
0	79	4	0.05
0	80	4.044245335	0.05
0	81	4.1	0.05
0	82	4.142853993	0.05
0	83	4.2	0.05
0	84	4.279978639	0.05
0	85	4.3	0.05
0	87	4.4	0.05
0	88	4.465525504	0.05
0	89	4.5	0.05
0	91	4.6	0.05
0	92	4.606945619	0.05
0	93	4.7	0.05
0	94	4.79345073	0.05
0	95	4.8	0.05
0	97	4.9	0.05
0	98	4.955087041	0.05
0	99	5	0.05
0	101	5.1	0.05
0	102	5.119294615	0.05
0	102	5.19431006	0.05
0	103	5.2	0.05
0	104	5.281825326	0.05
0	105	5.3	0.05
0	107	5.4	0.05
0	108	5.434098903	0.05
0	109	5.5	0.05
0	110	5.51812681	0.05
0	111	5.6	0.05
0	112	5.669116258	0.05
0	113	5.7	0.05
0	115	5.8	0.05
0	116	5.826132017	0.05
0	117	5.9	0.05
0	119	6	0.05
0	120	6.006687191	0.05
0	121	6.1	0.05
0	123	6.2	0.05
0	124	6.20370258	0.05
0	125	6.3	0.05
0	126	6.300650144	0.05
0	127	6.4	0.05
0	128	6.450770708	0.05
0	129	6.5	0.05
0	131	6.6	0.05
0	132	6.689204344	0.05
0	133	6.7	0.05
0	134	6.768811755	0.05
0	135	6.8	0.05
0	136	6.867422685	0.05
0	137	6.9	0.05
0	138	6.943371697	0.05
0	139	7	0.05
0	140	7.076333019	0.05
0	141	7.1	0.05
0	143	7.2	0.05
0	144	7.255237126	0.05
0	145	7.3	0.05
0	147	7.4	0.05
0	148	7.447408762	0.05
0	149	7.5	0.05
0	150	7.519582654	0.05
0	151	7.6	0.05
0	152	7.612745409	0.05
0	153	7.7	0.05
0	154	7.747122927	0.05
0	155	7.8	0.05
0	156	7.880975052	0.05
0	157	7.9	0.05
0	158	7.969504015	0.05
0	159	8	0.05
0	160	8.045154698	0.05
0	161	8.1	0.05
0	163	8.2	0.05
0	164	8.220738202	0.05
0	165	8.3	0.05
0	166	8.371750581	0.05
0	167	8.4	0.05
0	168	8.471099755	0.05
0	169	8.5	0.05
0	171	8.6	0.05
0	172	8.665157408	0.05
0	173	8.7	0.05
0	175	8.8	0.05
0	176	8.834278508	0.05
0	177	8.9	0.05
0	179	9	0.05
0	180	9.007029467	0.05
0	181	9.1	0.05
0	182	9.199310261	0.05
0	183	9.2	0.05
0	185	9.3	0.05
0	186	9.38097179	0.05
0	187	9.4	0.05
0	189	9.5	0.05
0	190	9.557016514	0.05
0	191	9.6	0.05
0	192	9.632077198	0.05
0	193	9.7	0.05
0	195	9.8	0.05
0	196	9.81949693	0.05
0	197	9.9	0.05
0	199	10	0.05
0	200	10.001221567	0.05
0	200	10.098879298	0.05
0	201	10.1	0.05
0	203	10.2	0.05
0	204	10.24070258	0.05
0	205	10.3	0.05
0	207	10.4	0.05
0	208	10.410016468	0.05
0	209	10.5	0.05
0	210	10.56895776	0.05
0	211	10.6	0.05
0	212	10.643295947	0.05
0	213	10.7	0.05
0	215	10.8	0.05
0	216	10.825968531	0.05
0	217	10.9	0.05
0	218	10.965449276	0.05
0	219	11	0.05
0	221	11.1	0.05
0	222	11.158625748	0.05
0	223	11.2	0.05
0	225	11.3	0.05
0	226	11.363086292	0.05
0	227	11.4	0.05
0	229	11.5	0.05
0	230	11.544499213	0.0495
0	230	11.544499213	0.0495
0	231	11.6	0.049722003148
0	233	11.7	0.05
0	234	11.762752487	0.05
0	235	11.8	0.05
0	237	11.9	0.05
0	238	11.974102818	0.05
0	239	12	0.05
0	241	12.1	0.05
0	242	12.154333789	0.05
0	243	12.2	0.05
0	245	12.3	0.05
0	246	12.336604856	0.05
0	247	12.4	0.05
0	249	12.5	0.05
0	250	12.554910086	0.05
0	251	12.6	0.05
0	253	12.7	0.05
0	254	12.731056685	0.05
0	255	12.8	0.05
0	256	12.875971201	0.05
0	257	12.9	0.05
0	259	13	0.05
0	260	13.027563995	0.05
0	261	13.1	0.05
0	262	13.189207185	0.05
0	263	13.2	0.05
0	265	13.3	0.05
0	266	13.372171293	0.05
0	267	13.4	0.05
0	269	13.5	0.05
0	270	13.555782412	0.05
0	271	13.6	0.05
0	273	13.7	0.05
0	274	13.728864339	0.0495
0	274	13.728864339	0.0495
0	275	13.8	0.049784542644
0	277	13.9	0.05
0	278	13.933971993	0.05
0	279	14	0.05
0	280	14.092274562	0.05
0	281	14.1	0.05
0	283	14.2	0.05
0	284	14.241219615	0.05
0	285	14.3	0.05
0	286	14.336962444	0.05
0	287	14.4	0.05
0	288	14.435062132	0.05
0	289	14.5	0.05
0	290	14.585979021	0.05
0	291	14.6	0.05
0	293	14.7	0.05
0	294	14.772028677	0.0495
0	294	14.772028677	0.0495
0	295	14.8	0.049611885292
0	297	14.9	0.05
0	298	14.921783844	0.05
0	299	15	0.05
0	300	15.019776902	0.05
0	301	15.1	0.05
0	302	15.186996472	0.05
0	303	15.2	0.05
0	304	15.287182109	0.05
0	305	15.3	0.05
0	306	15.382943034	0.05
0	307	15.4	0.05
0	309	15.5	0.05
0	310	15.584565117	0.05
0	311	15.6	0.05
0	313	15.7	0.05
0	314	15.775367877	0.0495
0	314	15.775367877	0.0495
0	315	15.8	0.049598528492
0	317	15.9	0.049998528492
0	318	15.970764148	0.05
0	319	16	0.05
0	321	16.1	0.05
0	322	16.181460571	0.05
0	323	16.2	0.05
0	325	16.3	0.05
0	327	16.4	0.05
0	328	16.411597142	0.05
0	329	16.5	0.05
0	331	16.6	0.05
0	332	16.605074585	0.05
0	333	16.7	0.05
0	334	16.751670968	0.05
0	335	16.8	0.05
0	337	16.9	0.05
0	338	16.909564337	0.05
0	339	17	0.05
0	341	17.1	0.05
0	342	17.108680447	0.05
0	343	17.2	0.05
0	345	17.3	0.05
0	346	17.311645304	0.05
0	347	17.4	0.05
0	349	17.5	0.05
0	350	17.508458763	0.05
0	351	17.6	0.05
0	352	17.666780059	0.05
0	353	17.7	0.05
0	355	17.8	0.05
0	356	17.868605832	0.05
0	357	17.9	0.05
0	359	18	0.05
0	360	18.088805193	0.05
0	361	18.1	0.05
0	363	18.2	0.05
0	364	18.284384275	0.05
0	365	18.3	0.05
0	367	18.4	0.05
0	368	18.447363036	0.05
0	369	18.5	0.05
0	370	18.593200572	0.05
0	371	18.6	0.05
0	373	18.7	0.05
0	375	18.8	0.05
0	376	18.896664143	0.05
0	377	18.9	0.05
0	378	18.986699474	0.05
0	379	19	0.05
0	381	19.1	0.05
0	382	19.139410576	0.05
0	383	19.2	0.05
0	384	19.290316198	0.05
0	385	19.3	0.05
0	387	19.4	0.05
0	388	19.472880588	0.05
0	389	19.5	0.05
0	391	19.6	0.05
0	392	19.628378166	0.05
0	392	19.696606806	0.05
0	393	19.7	0.05
0	395	19.8	0.05
0	396	19.855890859	0.05
0	397	19.9	0.05
0	399	20	0.05
0	400	20.021611508	0.05
0	401	20.1	0.05
0	403	20.2	0.05
0	404	20.231255611	0.05
0	405	20.3	0.05
0	407	20.4	0.05
0	408	20.402739379	0.05
0	409	20.5	0.05
0	411	20.6	0.05
0	412	20.631109606	0.05
0	413	20.7	0.05
0	415	20.8	0.05
0	416	20.814399711	0.05
0	417	20.9	0.05
0	418	20.909773561	0.05
0	419	21	0.05
0	420	21.067094168	0.05
0	421	21.1	0.05
0	423	21.2	0.05
0	424	21.218514735	0.05
0	425	21.3	0.05
0	426	21.30760953	0.05
0	427	21.4	0.05
0	429	21.5	0.05
0	430	21.529882379	0.05
0	431	21.6	0.05
0	433	21.7	0.05
0	434	21.793771104	0.05
0	435	21.8	0.05
0	437	21.9	0.05
0	438	21.96404214	0.05
0	439	22	0.05
0	441	22.1	0.05
0	442	22.127594279	0.05
0	443	22.2	0.05
0	445	22.3	0.05
0	446	22.342039893	0.05
0	447	22.4	0.05
0	449	22.5	0.05
0	450	22.575133641	0.05
0	451	22.6	0.05
0	453	22.7	0.05
0	454	22.795262768	0.05
0	455	22.8	0.05
0	457	22.9	0.05
0	458	22.994108484	0.05
0	459	23	0.05
0	461	23.08057828677	0.05
0	462	23.1	0.05
0	463	23.160943999	0.05
0	464	23.2	0.05
0	466	23.3	0.05
0	467	23.340493961	0.05
0	468	23.4	0.0495
0	468	23.4	0.0495
0	469	23.490256832	0.0495
0	470	23.5	0.0495
0	472	23.6	0.0495
0	473	23.676500409	0.0495
0	474	23.7	0.0495
0	476	23.8	0.0495
0	477	23.838459161	0.0495
0	478	23.9	0.0495
0	479	23.980302444	0.0495
0	480	24	0.0495
0	482	24.1	0.0495
0	483	24.171713933	0.0495
0	484	24.2	0.0495
0	486	24.3	0.0495
0	487	24.324730668	0.0495
0	488	24.4	0.0495
0	489	24.493042832	0.0495
0	490	24.5	0.0495
0	492	24.6	0.0495
0	493	24.687901465	0.0495
0	494	24.7	0.0495
0	496	24.8	0.0495
0	497	24.872239512	0.0495
0	498	24.9	0.0495
0	500	25	0.0495
0	501	25.044998348	0.0495
0	502	25.1	0.0495
0	504	25.2	0.0495
0	505	25.21887022	0.0495
0	506	25.3	0.0495
0	508	25.4	0.0495
0	509	25.411853288	0.0495
0	510	25.5	0.0495
0	511	25.55282892	0.0495
0	512	25.6	0.0495
0	514	25.7	0.0495
0	515	25.721946198	0.0495
0	516	25.8	0.0495
0	518	25.9	0.0495
0	519	25.926587902	0.0495
0	520	26	0.0495
0	522	26.1	0.0495
0	523	26.131295506	0.0495
0	524	26.2	0.0495
0	525	26.299321929	0.0495
0	526	26.3	0.0495
0	528	26.4	0.0495
0	529	26.454715334	0.0495
0	530	26.5	0.0495
0	531	26.55271259	0.0495
0	532	26.6	0.049005
0	532	26.6	0.049005
0	534	26.7	0.049005
0	535	26.726253398	0.049005
0	536	26.8	0.049005
0	537	26.874680278	0.049005
0	538	26.9	0.049005
0	539	26.959639822	0.049005
0	540	27	0.049005
0	542	27.1	0.049005
0	543	27.108152434	0.049005
0	544	27.2	0.049005
0	545	27.26606947	0.049005
0	546	27.3	0.049005
0	548	27.4	0.049005
0	549	27.430066898	0.049005
0	550	27.5	0.049005
0	551	27.591086496	0.049005
0	552	27.6	0.04851495
0	552	27.6	0.04851495
0	554	27.7	0.04851495
0	555	27.764291381	0.04851495
0	556	27.8	0.04851495
0	558	27.9	0.04851495
0	559	27.930637189	0.04851495
0	560	28	0.04851495
0	561	28.071873299	0.04851495
0	562	28.1	0.04851495
0	564	28.2	0.04851495
0	565	28.227286626	0.04851495
0	566	28.3	0.04851495
0	567	28.322829034	0.04851495
0	568	28.4	0.04851495
0	570	28.5	0.04851495
0	571	28.50578514	0.04851495
0	572	28.6	0.04851495
0	573	28.691334362	0.04851495
0	574	28.7	0.04851495
0	576	28.8	0.04851495
0	577	28.887736011	0.04851495
0	578	28.9	0.04851495
0	580	29	0.04851495
0	582	29.1	0.04851495
0	583	29.101507764	0.04851495
0	584	29.2	0.04851495
0	586	29.3	0.04851495
0	587	29.324075913	0.04851495
0	588	29.4	0.04851495
0	589	29.49462877	0.04851495
0	590	29.5	0.04851495
0	592	29.6	0.04851495
0	593	29.638709845	0.04851495
0	594	29.7	0.04851495
0	595	29.79853091	0.04851495
0	596	29.8	0.04851495
0	598	29.9	0.04851495
0	599	29.958237148	0.04851495
0	600	30	0.04851495
0	601	30.046102937	0.04851495
0	602	30.1	0.04851495
0	604	30.2	0.04851495
0	605	30.20666697	0.04851495
0	606	30.3	0.04851495
0	607	30.367117771	0.04851495
0	608	30.4	0.04851495
0	610	30.5	0.04851495
0	611	30.522736816	0.04851495
0	612	30.6	0.04851495
0	613	30.679091211	0.04851495
0	614	30.7	0.04851495
0	616	30.8	0.0480298005
0	616	30.8	0.0480298005
0	617	30.833839279	0.0480298005
0	618	30.9	0.0480298005
0	619	30.99689913	0.0480298005
0	620	31	0.0480298005
0	622	31.1	0.0480298005
0	623	31.159551425	0.0480298005
0	624	31.2	0.0480298005
0	625	31.25257175	0.0480298005
0	626	31.3	0.0480298005
0	628	31.4	0.0480298005
0	629	31.415468773	0.0480298005
0	630	31.5	0.0480298005
0	631	31.584833561	0.0480298005
0	632	31.6	0.0480298005
0	634	31.7	0.0480298005
0	635	31.768094264	0.0480298005
0	636	31.8	0.047549502495
0	636	31.8	0.047549502495
0	638	31.9	0.047549502495
0	639	31.920461443	0.047549502495
0	640	32	0.047549502495
0	641	32.055752023	0.047549502495
0	642	32.1	0.047549502495
0	643	32.189454898	0.047549502495
0	644	32.2	0.047549502495
0	646	32.3	0.047549502495
0	647	32.38405506	0.047549502495
0	648	32.4	0.047549502495
0	650	32.5	0.047549502495
0	651	32.543345375	0.047549502495
0	652	32.6	0.047549502495
0	653	32.633648823	0.047549502495
0	654	32.7	0.047549502495
0	655	32.799872802	0.047549502495
0	656	32.8	0.04707400747005
0	656	32.8	0.04707400747005
0	658	32.9	0.04707400747005
0	659	32.955567378	0.04707400747005
0	660	33	0.04707400747005
0	662	33.1	0.04707400747005
0	663	33.112135726	0.04707400747005
0	664	33.2	0.04707400747005
0	665	33.206365668	0.04707400747005
0	666	33.3	0.04707400747005
0	667	33.345903335	0.04707400747005
0	668	33.4	0.04707400747005
0	670	33.5	0.04707400747005
0	671	33.500947511	0.04707400747005
0	671	33.599000676	0.04707400747005
0	672	33.6	0.04707400747005
0	674	33.7	0.04707400747005
0	675	33.747184369	0.04707400747005
0	676	33.8	0.04660326739535
0	676	33.8	0.04660326739535
0	678	33.9	0.04660326739535
0	679	33.925768244	0.04660326739535
0	680	34	0.04660326739535
0	681	34.065315399	0.04660326739535
0	682	34.1	0.04660326739535
0	684	34.2	0.04660326739535
0	685	34.23364773	0.04660326739535
0	686	34.3	0.04660326739535
0	687	34.386239444	0.04660326739535
0	688	34.4	0.04660326739535
0	690	34.5	0.04660326739535
0	691	34.527264998	0.04660326739535
0	692	34.6	0.04660326739535
0	693	34.679965865	0.04660326739535
0	694	34.7	0.04660326739535
0	696	34.8	0.04660326739535
0	697	34.856805873	0.04660326739535
0	698	34.9	0.04660326739535
0	699	34.953685542	0.04660326739535
0	700	35	0.04660326739535
0	702	35.1	0.04660326739535
0	703	35.128404522	0.04660326739535
0	704	35.2	0.04660326739535
0	705	35.273978009	0.04660326739535
0	706	35.3	0.04660326739535
0	707	35.370585278	0.04660326739535
0	708	35.4	0.04660326739535
0	710	35.5	0.04660326739535
0	711	35.565640182	0.04660326739535
0	712	35.6	0.04660326739535
0	714	35.7	0.04660326739535
0	715	35.706308042	0.04660326739535
0	716	35.8	0.04660326739535
0	717	35.877901923	0.04660326739535
0	718	35.9	0.04660326739535
0	720	36	0.04660326739535
0	721	36.026852217	0.04660326739535
0	722	36.1	0.04660326739535
0	723	36.158545359	0.04660326739535
0	724	36.2	0.04660326739535
0	726	36.3	0.04660326739535
0	727	36.310734389	0.04660326739535
0	728	36.4	0.04660326739535
0	729	36.451103225	0.04660326739535
0	730	36.5	0.04660326739535
0	732	36.6	0.04660326739535
0	733	36.601756336	0.04660326739535
0	734	36.7	0.04660326739535
0	735	36.701895549	0.04660326739535
0	736	36.8	0.04660326739535
0	737	36.841955269	0.04660326739535
0	738	36.9	0.04660326739535
0	739	36.939195803	0.04660326739535
0	740	37	0.04660326739535
0	742	37.1	0.04660326739535
0	743	37.112830039	0.04660326739535
0	744	37.2	0.04660326739535
0	745	37.259134039	0.04660326739535
0	746	37.3	0.04660326739535
0	748	37.4	0.04660326739535
0	749	37.420800207	0.04660326739535
0	750	37.5	0.04660326739535
0	751	37.51911087	0.04660326739535
0	752	37.6	0.04660326739535
0	753	37.670995115	0.04660326739535
0	754	37.7	0.04660326739535
0	756	37.8	0.04660326739535
0	757	37.822566405	0.04660326739535
0	758	37.9	0.04660326739535
0	760	38	0.04660326739535
0	761	38.018106758	0.04660326739535
0	762	38.1	0.04660326739535
0	764	38.2	0.04660326739535
0	765	38.228835323	0.04660326739535
0	766	38.3	0.04660326739535
0	768	38.4	0.04660326739535
0	769	38.415322622	0.04660326739535
0	770	38.5	0.04660326739535
0	771	38.599989931	0.04660326739535
0	772	38.6	0.04660326739535
0	773	38.690257941	0.04660326739535
0	774	38.7	0.04660326739535
0	776	38.8	0.04660326739535
0	777	38.817780358	0.04660326739535
0	778	38.9	0.046137234721396
0	778	38.9	0.046137234721396
0	779	38.983605312	0.046137234721396
0	780	39	0.046137234721396
0	782	39.1	0.046137234721396
0	783	39.119534179	0.046137234721396
0	784	39.2	0.046137234721396
0	785	39.268383251	0.046137234721396
0	786	39.3	0.046137234721396
0	788	39.4	0.046137234721396
0	789	39.424909862	0.046137234721396
0	790	39.5	0.046137234721396
0	792	39.6	0.046137234721396
0	793	39.621260883	0.046137234721396
0	794	39.7	0.046137234721396
0	796	39.8	0.046137234721396
0	797	39.801168082	0.046137234721396
0	798	39.9	0.046137234721396
0	799	39.958697959	0.046137234721396
0	800	40	0.046137234721396
0	802	40.1	0.046137234721396
0	803	40.152998549	0.046137234721396
0	804	40.2	0.046137234721396
0	806	40.3	0.046137234721396
0	807	40.350850906	0.046137234721396
0	808	40.4	0.046137234721396
0	809	40.451035728	0.046137234721396
0	810	40.5	0.046137234721396
0	812	40.6	0.046137234721396
0	813	40.604229536	0.046137234721396
0	813	40.698458294	0.046137234721396
0	814	40.7	0.046137234721396
0	816	40.8	0.046137234721396
0	817	40.851864879	0.046137234721396
0	818	40.9	0.046137234721396
0	819	40.99789883	0.046137234721396
0	820	41	0.046137234721396
0	822	41.1	0.046137234721396
0	823	41.160387944	0.046137234721396
0	824	41.2	0.046137234721396
0	826	41.3	0.046137234721396
0	827	41.319370468	0.046137234721396
0	828	41.4	0.046137234721396
0	829	41.414453154	0.046137234721396
0	830	41.5	0.046137234721396
0	832	41.6	0.046137234721396
0	833	41.611615251	0.046137234721396
0	834	41.7	0.046137234721396
0	835	41.765315942	0.046137234721396
0	836	41.8	0.046137234721396
0	838	41.9	0.046137234721396
0	839	41.924174957	0.046137234721396
0	840	42	0.045675862374182
0	840	42	0.045675862374182
0	841	42.094253818	0.045675862374182
0	842	42.1	0.045675862374182
0	843	42.192246147	0.045675862374182
0	844	42.2	0.045675862374182
0	845	42.293402566	0.045675862374182
0	846	42.3	0.045675862374182
0	848	42.4	0.045675862374182
0	849	42.457632742	0.045675862374182
0	850	42.5	0.045675862374182
0	851	42.591668756	0.045675862374182
0	852	42.6	0.045675862374182
0	853	42.678010659	0.045675862374182
0	854	42.7	0.045675862374182
0	856	42.8	0.045675862374182
0	857	42.845083619	0.045675862374182
0	858	42.9	0.045675862374182
0	859	42.930912532	0.045675862374182
0	860	43	0.045675862374182
0	861	43.076944598	0.045675862374182
0	862	43.1	0.045675862374182
0	863	43.157917764	0.045675862374182
0	864	43.2	0.045675862374182
0	865	43.243050951	0.045675862374182
0	866	43.3	0.045675862374182
0	868	43.4	0.045675862374182
0	869	43.4117297	0.045675862374182
0	870	43.5	0.045675862374182
0	872	43.6	0.045675862374182
0	873	43.623552633	0.045675862374182
0	874	43.7	0.045675862374182
0	875	43.794660675	0.045675862374182
0	876	43.8	0.045675862374182
0	877	43.888770633	0.045675862374182
0	878	43.9	0.04521910375044
0	878	43.9	0.04521910375044
0	879	43.98006364	0.04521910375044
0	880	44	0.04521910375044
0	882	44.1	0.04521910375044
0	883	44.127135355	0.04521910375044
0	884	44.2	0.04521910375044
0	885	44.270930738	0.04521910375044
0	886	44.3	0.04521910375044
0	888	44.4	0.04521910375044
0	889	44.433927969	0.04521910375044
0	890	44.5	0.04521910375044
0	891	44.595969855	0.04521910375044
0	892	44.6	0.04521910375044
0	894	44.7	0.04521910375044
0	895	44.748602808	0.04521910375044
0	896	44.8	0.04521910375044
0	897	44.898284927	0.04521910375044
0	898	44.9	0.044766912712936
0	898	44.9	0.044766912712936
0	900	45	0.044766912712936
0	901	45.056321563	0.044766912712936
0	902	45.1	0.044766912712936
0	904	45.2	0.044766912712936
0	905	45.208041953	0.044766912712936
0	906	45.3	0.044766912712936
0	908	45.4	0.044766912712936
0	909	45.400941854	0.044766912712936
0	910	45.5	0.044766912712936
0	912	45.6	0.044766912712936
0	913	45.603781528	0.044766912712936
0	913	45.69846849	0.044766912712936
0	914	45.7	0.044766912712936
0	916	45.8	0.044766912712936
0	917	45.844834878	0.044766912712936
0	918	45.9	0.044766912712936
0	919	45.983408532	0.044766912712936
0	920	46	0.044766912712936
0	922	46.1	0.044766912712936
0	923	46.152298884	0.044766912712936
0	924	46.2	0.044766912712936
0	926	46.3	0.044766912712936
0	928	46.4	0.044766912712936
0	929	46.41222417	0.044766912712936
0	930	46.5	0.044766912712936
0	932	46.6	0.044766912712936
0	933	46.673900786	0.044766912712936
0	934	46.7	0.044766912712936
0	936	46.8	0.044766912712936
0	937	46.852800537	0.044766912712936
0	938	46.9	0.044766912712936
0	940	46.908641743422	0.044766912712936
0	941	46.966913565188	0.045
0	942	46.993428175	0.044654997854856
0	942	46.993428175	0.044654997854856
0	943	47	0.044681285154856
0	945	47.091913565188	0.0455
0	946	47.1	0.045532345739248
0	947	47.171480781	0.045818268863248
0	948	47.2	0.045932345739248
0	950	47.216913565188	0.046
0	951	47.3	0.046332345739248
0	953	47.341913565188	0.0465
0	953	47.38120596	0.046657169579248
0	954	47.4	0.046732345739248
0	956	47.466913565188	0.047
0	957	47.5	0.047132345739248
0	958	47.576447076	0.047438134043248
0	959	47.591913565188	0.0475
0	960	47.6	0.047532345739248
0	962	47.7	0.047932345739248
0	964	47.716913565188	0.048
0	964	47.773539818	0.048226505011248
0	965	47.8	0.048332345739248
0	967	47.841913565188	0.0485
0	968	47.9	0.048245022281856
0	968	47.9	0.048245022281856
0	969	47.955994755	0.048469001301856
0	970	47.966913565188	0.049
0	971	48	0.049132345739248
0	973	48.091913565188	0.0495
0	974	48.1	0.049532345739248
0	975	48.199790757	0.049931508767248
0	976	48.2	0.049932345739248
0	978	48.216913565188	0.05
0	979	48.3	0.05
0	980	48.359052505	0.05
0	981	48.4	0.05
0	983	48.5	0.05
0	984	48.513731073	0.05
0	985	48.6	0.05
0	986	48.679494498	0.05
0	987	48.7	0.05
0	989	48.8	0.05
0	990	48.830728042	0.0495
0	990	48.830728042	0.0495
0	991	48.9	0.049777087832
0	992	48.925229603	0.049878006244
0	993	49	0.05
0	994	49.088533444	0.05
0	995	49.1	0.05
0	997	49.2	0.05
0	998	49.260875611	0.05
0	999	49.3	0.05
0	1001	49.4	0.05
0	1002	49.427197679	0.05
0	1003	49.5	0.05
0	1005	49.6	0.05
0	1006	49.61295252	0.05
0	1007	49.7	0.05
0	1008	49.763184547	0.05
0	1009	49.8	0.05
0	1010	49.895691068	0.0495
0	1010	49.895691068	0.0495
0	1011	49.9	0.049517235728
0	1012	49.983253488	0.04985024968
0	1013	50	0.049917235728
0	1015	50.1	0.05
0	1016	50.148486518	0.05
0	1017	50.2	0.05
0	1018	50.244096534	0.05
0	1019	50.3	0.05
0	1021	50.4	0.05
0	1022	50.411782077	0.05
0	1023	50.5	0.05
0	1024	50.568719757	0.05
0	1025	50.6	0.05
0	1028	50.7	0.05
0	1028	50.763888015	0.05
0	1030	50.8	0.05
0	1032	50.9	0.0495
0	1032	50.9	0.0495
0	1033	50.999259235	0.04989703694
0	1034	51	0.0499
0	1036	51.1	0.05
0	1036	51.180226521	0.05
0	1038	51.2	0.05
0	1040	51.3	0.05
0	1040	51.362215731	0.05
0	1042	51.4	0.05
0	1044	51.5	0.05
0	1044	51.560974592	0.05
0	1046	51.6	0.05
0	1048	51.7	0.05
0	1048	51.751451607	0.05
0	1050	51.8	0.05
0	1052	51.9	0.05
0	1052	51.973313738	0.05
0	1054	52	0.0495
0	1054	52	0.0495
0	1056	52.1	0.0499
0	1056	52.117003803	0.049968015212
0	1058	52.2	0.05
0	1058	52.259540721	0.05
0	1060	52.3	0.05
0	1060	52.33939163	0.05
0	1062	52.4	0.05
0	1062	52.482023577	0.05
0	1064	52.5	0.05
0	1066	52.6	0.05
0	1066	52.610156321	0.05
0	1068	52.7	0.05
0	1070	52.8	0.05
0	1070	52.811263192	0.05
0	1072	52.9	0.05
0	1073	52.984902566	0.05
0	1074	53	0.0495
0	1074	53	0.0495
0	1076	53.1	0.0499
0	1077	53.199647162	0.05
0	1078	53.2	0.05
0	1080	53.3	0.05
0	1082	53.4	0.05
0	1082	53.428499425	0.05
0	1084	53.5	0.05
0	1084	53.571263336	0.05
0	1086	53.6	0.05
0	1088	53.7	0.05
0	1088	53.772773243	0.05
0	1090	53.8	0.05
0	1092	53.9	0.05
0	1092	53.958067712	0.05
0	1094	54	0.05
0	1096	54.1	0.05
0	1096	54.153153429	0.0495
0	1096	54.153153429	0.0495
0	1098	54.2	0.049687386284
0	1100	54.3	0.05
0	1100	54.302854057	0.05
0	1102	54.4	0.05
0	1102	54.439254895	0.05
0	1104	54.5	0.05
0	1104	54.527747421	0.05
0	1106	54.6	0.05
0	1106	54.678621795	0.05
0	1108	54.7	0.05
0	1110	54.8	0.05
0	1110	54.828427927	0.05
0	1112	54.9	0.05
0	1112	54.971987868	0.05
0	1114	55	0.05
0	1114	55.072023285	0.05
0	1116	55.1	0.0495
0	1116	55.1	0.0495
0	1118	55.2	0.0499
0	1118	55.225532448	0.05
0	1120	55.3	0.05
0	1121	55.387892819	0.05
0	1122	55.4	0.05
0	1124	55.5	0.05
0	1124	55.548773314	0.05
0	1126	55.6	0.05
0	1128	55.7	0.05
0	1128	55.703855107	0.05
0	1130	55.8	0.05
0	1130	55.847918838	0.05
0	1132	55.9	0.05
0	1134	56	0.05
0	1134	56.005943354	0.05
0	1135	56.091175151	0.05
0	1136	56.1	0.0495
0	1136	56.1	0.0495
0	1136	56.182615571	0.049830462284
0	1138	56.2	0.0499
0	1140	56.3	0.05
0	1140	56.315383094	0.05
0	1141	56.394890991	0.05
0	1142	56.4	0.05
0	1144	56.5	0.05
0	1144	56.530168748	0.05
0	1146	56.6	0.05
0	1148	56.7	0.05
0	1148	56.708726677	0.05
0	1149	56.769634267061	0.05
0	1151	56.869634267061	0.05
0	1152	56.905138008	0.05
0	1153	56.969634267061	0.05
0	1155	57.069634267061	0.05
0	1156	57.132977611	0.0495
0	1156	57.132977611	0.0495
0	1157	57.169634267061	0.049646626624244
0	1159	57.269634267061	0.05
0	1159	57.282572095	0.05
0	1160	57.368004846	0.05
0	1161	57.369634267061	0.05
0	1162	57.436409704	0.05
0	1163	57.469634267061	0.05
0	1165	57.569634267061	0.05
0	1166	57.600556359	0.05
0	1167	57.669634267061	0.05
0	1168	57.747396548	0.05
0	1169	57.769634267061	0.05
0	1171	57.869634267061	0.05
0	1172	57.922918672	0.05
0	1173	57.969634267061	0.05
0	1175	58.069634267061	0.05
0	1176	58.092541817	0.0495
0	1176	58.092541817	0.0495
0	1176	58.16833227	0.049803161812
0	1177	58.169634267061	0.049808369800244
0	1179	58.269634267061	0.05
0	1180	58.328239029	0.05
0	1181	58.369634267061	0.05
0	1183	58.469634267061	0.05
0	1184	58.499441456	0.05
0	1185	58.569634267061	0.05
0	1185	58.582229474	0.05
0	1187	58.669634267061	0.05
0	1188	58.750957248	0.05
0	1189	58.769634267061	0.05
0	1192	58.869634267061	0.05
0	1193	58.914961641	0.05
0	1194	58.969634267061	0.05
0	1196	59.069634267061	0.05
0	1196	59.074081715	0.0495
0	1196	59.074081715	0.0495
0	1197	59.148911634	0.049799319676
0	1198	59.169634267061	0.049882210208244
0	1199	59.21920064	0.05
0	1200	59.269634267061	0.05
0	1202	59.369634267061	0.05
0	1203	59.42455483	0.05
0	1204	59.469634267061	0.05
0	1205	59.508253161	0.05
0	1206	59.569634267061	0.05
0	1208	59.669634267061	0.05
0	1208	59.682773945	0.05
0	1210	59.769634267061	0.05
0	1212	59.869634267061	0.05
0	1213	59.899466562	0.05
0	1214	59.969634267061	0.05
0	1216	60.069634267061	0.05
0	1217	60.104377589	0.05
0	1218	60.169634267061	0.05
0	1219	60.243513975	0.05
0	1220	60.269634267061	0.05
0	1222	60.369634267061	0.05
0	1223	60.408993133	0.05
0	1224	60.469634267061	0.05
0	1225	60.552802639	0.05
0	1226	60.569634267061	0.05
0	1228	60.669634267061	0.05
0	1229	60.731987798	0.05
0	1230	60.769634267061	0.05
0	1232	60.869634267061	0.05
0	1233	60.918091302	0.05
0	1234	60.969634267061	0.05
0	1236	61.069634267061	0.05
0	1237	61.113646452	0.05
0	1238	61.169634267061	0.0495
0	1238	61.169634267061	0.0495
0	1240	61.269634267061	0.0499
0	1241	61.302621436	0.05
0	1242	61.369634267061	0.05
0	1244	61.469634267061	0.05
0	1245	61.523688759	0.05
0	1246	61.569634267061	0.05
0	1248	61.669634267061	0.05
0	1249	61.747889854	0.05
0	1250	61.769634267061	0.05
0	1252	61.869634267061	0.05
0	1253	61.950437189	0.05
0	1254	61.969634267061	0.05
0	1256	62.069634267061	0.05
0	1257	62.144524956	0.05
0	1258	62.169634267061	0.05
0	1260	62.269634267061	0.05
0	1261	62.315615027	0.05
0	1262	62.369634267061	0.05
0	1264	62.469634267061	0.05
0	1264	62.477344689	0.05
0	1266	62.569634267061	0.05
0	1267	62.617185543	0.05
0	1268	62.669634267061	0.05
0	1270	62.769634267061	0.05
0	1270	62.77713401	0.05
0	1272	62.869634267061	0.05
0	1273	62.923151998	0.05
0	1274	62.969634267061	0.05
0	1275	63.0067818	0.05
0	1276	63.069634267061	0.05
0	1278	63.169634267061	0.05
0	1279	63.192689476	0.05
0	1280	63.269634267061	0.05
0	1281	63.354656477	0.05
0	1282	63.369634267061	0.05
0	1283	63.454548734	0.05
0	1284	63.469634267061	0.05
0	1286	63.569634267061	0.05
0	1287	63.657203486	0.05
0	1288	63.669634267061	0.05
0	1290	63.769634267061	0.05
0	1291	63.824514635	0.05
0	1292	63.869634267061	0.05
0	1294	63.969634267061	0.05
0	1295	64.005705279	0.05
0	1296	64.069634267061	0.05
0	1298	64.169634267061	0.05
0	1299	64.2429212	0.05
0	1300	64.269634267061	0.05
0	1302	64.369634267061	0.05
0	1303	64.431871843	0.05
0	1304	64.469634267061	0.05
0	1306	64.569634267061	0.05
0	1308	64.669634267061	0.05
0	1308	64.677037591	0.05
0	1310	64.769634267061	0.05
0	1311	64.864911848	0.05
0	1312	64.869634267061	0.05
0	1314	64.969634267061	0.05
0	1315	65.026884894	0.05
0	1316	65.069634267061	0.05
0	1318	65.169634267061	0.05
0	1319	65.196572469	0.05
0	1320	65.269634267061	0.05
0	1321	65.334314149	0.05
0	1322	65.369634267061	0.05
0	1324	65.469634267061	0.05
0	1325	65.498471745	0.05
0	1326	65.569634267061	0.05
0	1327	65.633684133	0.05
0	1328	65.669634267061	0.05
0	1330	65.769634267061	0.05
0	1331	65.805516063	0.05
0	1332	65.869634267061	0.05
0	1334	65.969634267061	0.05
0	1335	66.008746379	0.05
0	1336	66.069634267061	0.05
0	1337	66.107750476	0.05
0	1338	66.169634267061	0.05
0	1340	66.269634267061	0.05
0	1341	66.285186742	0.05
0	1342	66.369634267061	0.05
0	1343	66.467641201	0.05
0	1344	66.469634267061	0.05
0	1345	66.548996825	0.05
0	1346	66.569634267061	0.05
0	1348	66.669634267061	0.05
0	1349	66.704513226	0.05
0	1350	66.769634267061	0.05
0	1351	66.843397008	0.05
0	1352	66.869634267061	0.05
0	1353	66.919638196	0.05
0	1354	66.969634267061	0.05
0	1355	67.056472259	0.05
0	1356	67.069634267061	0.05
0	1357	67.137856998	0.05
0	1358	67.169634267061	0.05
0	1359	67.22232075	0.05
0	1360	67.269634267061	0.05
0	1362	67.369634267061	0.05
0	1362	67.375592823	0.05
0	1364	67.469634267061	0.0495
0	1364	67.469634267061	0.0495
0	1365	67.546652981	0.049808074855756
0	1366	67.569634267061	0.0499
0	1367	67.646031028	0.05
0	1368	67.669634267061	0.05
0	1370	67.769634267061	0.05
0	1370	67.783178295	0.05
0	1372	67.869634267061	0.05
0	1373	67.939066637	0.05
0	1374	67.969634267061	0.05
0	1376	68.069634267061	0.05
0	1377	68.099346379	0.05
0	1378	68.169634267061	0.05
0	1379	68.250068681	0.05
0	1380	68.269634267061	0.05
0	1382	68.369634267061	0.05
0	1382	68.383411968	0.05
0	1384	68.469634267061	0.0495
0	1384	68.469634267061	0.0495
0	1385	68.531289714	0.049746621787756
0	1386	68.569634267061	0.0499
0	1388	68.669634267061	0.05
0	1389	68.687968797	0.05
0	1390	68.769634267061	0.05
0	1390	68.775050013	0.05
0	1391	68.851607481	0.05
0	1392	68.869634267061	0.05
0	1394	68.969634267061	0.05
0	1395	69.048873712	0.05
0	1396	69.069634267061	0.05
0	1398	69.169634267061	0.05
0	1399	69.221267146	0.05
0	1400	69.269634267061	0.05
0	1402	69.369634267061	0.05
0	1403	69.443722629	0.05
0	1404	69.469634267061	0.0495
0	1404	69.469634267061	0.0495
0	1406	69.569634267061	0.0499
0	1407	69.596181645	0.05
0	1408	69.669634267061	0.05
0	1410	69.769634267061	0.05
0	1410	69.770001015	0.05
0	1412	69.869634267061	0.05
0	1413	69.937997997	0.05
0	1414	69.969634267061	0.05
0	1416	70.069634267061	0.05
0	1417	70.08840679	0.05
0	1418	70.169634267061	0.05
0	1419	70.23062261	0.05
0	1420	70.269634267061	0.05
0	1422	70.369634267061	0.05
0	1422	70.380868006	0.05
0	1424	70.469634267061	0.05
0	1426	70.569634267061	0.0495
0	1426	70.569634267061	0.0495
0	1427	70.584993686	0.049561437675756
0	1428	70.669634267061	0.0499
0	1429	70.737488228	0.05
0	1430	70.769634267061	0.05
0	1432	70.869634267061	0.05
0	1432	70.880468788	0.05
0	1433	70.963917037	0.05
0	1434	70.969634267061	0.05
0	1435	71.039716863	0.05
0	1436	71.069634267061	0.05
0	1438	71.169634267061	0.05
0	1438	71.181617473	0.05
0	1440	71.269634267061	0.05
0	1441	71.324370802	0.05
0	1442	71.369634267061	0.05
0	1444	71.469634267061	0.05
0	1444	71.476556342	0.0495
0	1444	71.476556342	0.0495
0	1446	71.569634267061	0.049872311700244
0	1448	71.669634267061	0.05
0	1448	71.67098033	0.05
0	1450	71.769634267061	0.05
0	1452	71.869634267061	0.05
0	1452	71.87040693	0.05
0	1454	71.969634267061	0.05
0	1455	72.04790703	0.05
0	1456	72.069634267061	0.05
0	1458	72.169634267061	0.05
0	1459	72.24324434	0.05
0	1460	72.269634267061	0.05
0	1462	72.369634267061	0.05
0	1463	72.447411027	0.05
0	1464	72.469634267061	0.05
0	1466	72.569634267061	0.05
0	1467	72.600466226	0.05
0	1468	72.669634267061	0.05
0	1469	72.68841251	0.05
0	1470	72.769634267061	0.05
0	1470	72.778857225	0.05
0	1472	72.869634267061	0.05
0	1472	72.877602471	0.05
0	1474	72.969634267061	0.05
0	1476	73.069634267061	0.05
0	1476	73.071218902	0.05
0	1478	73.169634267061	0.05
0	1480	73.269634267061	0.05
0	1481	73.296067412	0.05
0	1482	73.369634267061	0.05
0	1484	73.469634267061	0.05
0	1485	73.497957685	0.05
0	1486	73.569634267061	0.05
0	1488	73.669634267061	0.0495
0	1488	73.669634267061	0.0495
0	1489	73.696730039	0.049608383087756
0	1490	73.769634267061	0.0499
0	1492	73.869634267061	0.05
0	1493	73.897833241	0.05
0	1494	73.969634267061	0.05
0	1495	74.047832325	0.05
0	1496	74.069634267061	0.05
0	1498	74.169634267061	0.05
0	1499	74.237990636	0.05
0	1500	74.269634267061	0.05
0	1502	74.369634267061	0.05
0	1503	74.422089921	0.05
0	1504	74.469634267061	0.05
0	1506	74.569634267061	0.05
0	1506	74.579422121	0.05
0	1507	74.666688976	0.05
0	1508	74.669634267061	0.0495
0	1508	74.669634267061	0.0495
0	1509	74.76541563	0.049883125451756
0	1510	74.769634267061	0.0499
0	1512	74.869634267061	0.05
0	1513	74.955534524	0.05
0	1514	74.969634267061	0.05
0	1516	75.069634267061	0.05
0	1518	75.169634267061	0.05
0	1519	75.189199278	0.05
0	1520	75.269634267061	0.05
0	1521	75.341201699	0.05
0	1522	75.369634267061	0.05
0	1524	75.469634267061	0.05
0	1524	75.48284929	0.05
0	1526	75.569634267061	0.05
0	1527	75.654196119	0.05
0	1528	75.669634267061	0.05
0	1530	75.769634267061	0.0495
0	1530	75.769634267061	0.0495
0	1531	75.859390144	0.049859023507756
0	1532	75.869634267061	0.0499
0	1534	75.969634267061	0.05
0	1535	76.033132549	0.05
0	1536	76.069634267061	0.05
0	1538	76.169634267061	0.05
0	1539	76.197106548	0.05
0	1540	76.269634267061	0.05
0	1541	76.337727313	0.05
0	1542	76.369634267061	0.05
0	1544	76.443776708205	0.05
0	1545	76.469634267061	0.05
0	1545	76.480339381	0.05
0	1547	76.569634267061	0.05
0	1548	76.667114002	0.05
0	1549	76.669634267061	0.05
0	1551	76.769634267061	0.05
0	1552	76.860958441	0.05
0	1553	76.869634267061	0.05
0	1555	76.969634267061	0.05
0	1556	77.058587477	0.05
0	1557	77.069634267061	0.05
0	1559	77.169634267061	0.05
0	1560	77.210522807	0.05
0	1561	77.269634267061	0.05
0	1563	77.369634267061	0.05
0	1563	77.371687322	0.05
0	1564	77.469572632	0.05
0	1565	77.469634267061	0.05
0	1567	77.569634267061	0.05
0	1568	77.651474545	0.05
0	1569	77.669634267061	0.05
0	1571	77.753836678306	0.05
0	1572	77.769634267061	0.05
0	1573	77.814569142	0.05
0	1574	77.869634267061	0.05
0	1576	77.969634267061	0.05
0	1577	77.993230655	0.05
0	1578	78.069634267061	0.05
0	1579	78.155975931	0.05
0	1580	78.169634267061	0.05
0	1582	78.269634267061	0.05
0	1584	78.369634267061	0.05
0	1585	78.447312055	0.05
0	1586	78.469634267061	0.05
0	1588	78.569634267061	0.05
0	1590	78.669634267061	0.05
0	1590	78.672050528	0.05
0	1592	78.769634267061	0.05
0	1594	78.842602710973	0.05
0	1594	78.865081461	0.05
0	1595	78.869634267061	0.05
0	1597	78.969634267061	0.05
0	1598	79.044132627	0.05
0	1599	79.069634267061	0.05
0	1601	79.169634267061	0.05
0	1602	79.191840116	0.05
0	1603	79.269634267061	0.05
0	1604	79.363420201	0.05
0	1605	79.369634267061	0.05
0	1607	79.469634267061	0.05
0	1608	79.533398811	0.05
0	1609	79.569634267061	0.05
0	1611	79.669634267061	0.05
0	1611	79.677572836	0.05
0	1613	79.769634267061	0.05
0	1615	79.869634267061	0.05
0	1615	79.869994208	0.05
0	1617	79.969634267061	0.05
0	1618	80.058220724	0.05
0	1619	80.069634267061	0.05
0	1621	80.169634267061	0.05
0	1622	80.22344414	0.05
0	1623	80.269634267061	0.05
0	1625	80.369634267061	0.05
0	1625	80.373080562	0.05
0	1627	80.469634267061	0.05
0	1628	80.540695449	0.05
0	1629	80.569634267061	0.05
0	1631	80.669634267061	0.05
0	1632	80.691651681	0.05
0	1633	80.769634267061	0.05
0	1633	80.783271121	0.05
0	1634	80.86855312	0.05
0	1635	80.869634267061	0.05
0	1637	80.969634267061	0.05
0	1638	81.012537675	0.05
0	1639	81.069634267061	0.05
0	1641	81.169634267061	0.05
0	1641	81.179231426	0.05
0	1643	81.269634267061	0.05
0	1644	81.348573216	0.05
0	1645	81.369634267061	0.05
0	1647	81.469634267061	0.05
0	1648	81.508685863	0.05
0	1649	81.569634267061	0.05
0	1651	81.669634267061	0.05
0	1652	81.714958328	0.05
0	1653	81.769634267061	0.05
0	1655	81.869634267061	0.05
0	1655	81.884112088	0.05
0	1657	81.969634267061	0.05
0	1658	82.0515087	0.0495
0	1658	82.0515087	0.0495
0	1659	82.069634267061	0.0495
0	1661	82.169634267061	0.0495
0	1662	82.212000527	0.0495
0	1663	82.269634267061	0.0495
0	1664	82.364523634	0.0495
0	1665	82.369634267061	0.0495
0	1667	82.469634267061	0.0495
0	1668	82.504190197	0.0495
0	1669	82.569634267061	0.0495
0	1670	82.596769024	0.0495
0	1671	82.669634267061	0.0495
0	1672	82.736728074	0.0495
0	1673	82.769634267061	0.0495
0	1675	82.869634267061	0.0495
0	1676	82.920143213	0.0495
0	1677	82.969634267061	0.0495
0	1678	83.01361332	0.049005
0	1678	83.01361332	0.049005
0	1679	83.069634267061	0.049005
0	1680	83.160238839	0.049005
0	1681	83.169634267061	0.049005
0	1683	83.269634267061	0.049005
0	1684	83.329626098	0.049005
0	1685	83.369634267061	0.049005
0	1687	83.469634267061	0.049005
0	1688	83.499875166	0.049005
0	1689	83.569634267061	0.049005
0	1690	83.600735126	0.049005
0	1691	83.669634267061	0.049005
0	1692	83.747473513	0.049005
0	1693	83.769634267061	0.049005
0	1695	83.869634267061	0.049005
0	1696	83.907399043	0.049005
0	1697	83.969634267061	0.049005
0	1698	84.041633497	0.04851495
0	1698	84.041633497	0.04851495
0	1699	84.069634267061	0.04851495
0	1701	84.169634267061	0.04851495
0	1702	84.2035096	0.04851495
0	1703	84.269634267061	0.04851495
0	1705	84.369634267061	0.04851495
0	1705	84.374504048	0.04851495
0	1706	84.465927869	0.04851495
0	1707	84.469634267061	0.04851495
0	1708	84.563351101	0.04851495
0	1709	84.569634267061	0.04851495
0	1711	84.669634267061	0.04851495
0	1712	84.7128514	0.04851495
0	1713	84.769634267061	0.04851495
0	1715	84.869634267061	0.04851495
0	1716	84.894775167	0.04851495
0	1717	84.969634267061	0.04851495
0	1719	85.069634267061	0.04851495
0	1720	85.121914829	0.04851495
0	1721	85.169634267061	0.04851495
0	1723	85.269634267061	0.04851495
0	1724	85.292766946	0.04851495
0	1725	85.369634267061	0.04851495
0	1727	85.469634267061	0.04851495
0	1728	85.500892474	0.04851495
0	1729	85.569634267061	0.04851495
0	1731	85.669634267061	0.04851495
0	1732	85.714553899	0.04851495
0	1733	85.769634267061	0.04851495
0	1734	85.849798346	0.04851495
0	1735	85.869634267061	0.04851495
0	1737	85.969634267061	0.04851495
0	1738	86.009200283	0.04851495
0	1739	86.069634267061	0.04851495
0	1740	86.134672061	0.0480298005
0	1740	86.134672061	0.0480298005
0	1741	86.169634267061	0.0480298005
0	1743	86.269634267061	0.0480298005
0	1744	86.303378189	0.0480298005
0	1745	86.369634267061	0.0480298005
0	1746	86.466990264	0.0480298005
0	1747	86.469634267061	0.0480298005
0	1749	86.569634267061	0.0480298005
0	1750	86.633569188	0.0480298005
0	1751	86.669634267061	0.0480298005
0	1753	86.769634267061	0.0480298005
0	1754	86.785776665	0.0480298005
0	1755	86.869634267061	0.0480298005
0	1756	86.949439421	0.0480298005
0	1757	86.969634267061	0.0480298005
0	1759	87.069634267061	0.0480298005
0	1760	87.114762677	0.0480298005
0	1761	87.169634267061	0.0480298005
0	1763	87.269634267061	0.0480298005
0	1763	87.283273678	0.0480298005
0	1765	87.369634267061	0.0480298005
0	1766	87.443650578	0.0480298005
0	1767	87.469634267061	0.0480298005
0	1768	87.536497185	0.0480298005
0	1769	87.569634267061	0.0480298005
0	1771	87.669634267061	0.0480298005
0	1772	87.720797948	0.0480298005
0	1773	87.769634267061	0.0480298005
0	1774	87.805864256	0.0480298005
0	1775	87.869634267061	0.0480298005
0	1776	87.960097206	0.0480298005
0	1777	87.969634267061	0.0480298005
0	1779	88.069634267061	0.0480298005
0	1780	88.136521284	0.0480298005
0	1781	88.169634267061	0.0480298005
0	1783	88.269634267061	0.0480298005
0	1783	88.281344874	0.0480298005
0	1785	88.369634267061	0.0480298005
0	1787	88.469634267061	0.0480298005
0	1787	88.478284651	0.0480298005
0	1789	88.569634267061	0.0480298005
0	1790	88.624503202	0.0480298005
0	1791	88.669634267061	0.0480298005
0	1793	88.769634267061	0.0480298005
0	1793	88.776196645	0.0480298005
0	1795	88.869634267061	0.0480298005
0	1796	88.932098331	0.0480298005
0	1797	88.969634267061	0.0480298005
0	1798	89.031801681	0.0480298005
0	1799	89.069634267061	0.0480298005
0	1800	89.1248315	0.0480298005
0	1801	89.169634267061	0.0480298005
0	1803	89.269634267061	0.0480298005
0	1804	89.308590294	0.0480298005
0	1805	89.369634267061	0.0480298005
0	1806	89.401935934	0.0480298005
0	1807	89.469634267061	0.0480298005
0	1809	89.569634267061	0.0480298005
0	1810	89.58832781	0.0480298005
0	1811	89.669634267061	0.0480298005
0	1812	89.756130251	0.0480298005
0	1813	89.769634267061	0.0480298005
0	1815	89.869634267061	0.0480298005
0	1816	89.933464541	0.0480298005
0	1817	89.969634267061	0.0480298005
0	1819	90.069634267061	0.0480298005
0	1820	90.103739539	0.0480298005
0	1821	90.169634267061	0.0480298005
0	1823	90.269634267061	0.0480298005
0	1824	90.290682734	0.0480298005
0	1825	90.369634267061	0.0480298005
0	1826	90.459512635	0.0480298005
0	1827	90.469634267061	0.0480298005
0	1829	90.569634267061	0.0480298005
0	1830	90.637559663	0.0480298005
0	1831	90.669634267061	0.0480298005
0	1833	90.769634267061	0.0480298005
0	1834	90.837639961	0.0480298005
0	1835	90.869634267061	0.0480298005
0	1837	90.969634267061	0.0480298005
0	1838	90.988348575	0.0480298005
0	1839	91.069634267061	0.0480298005
0	1840	91.120911696	0.0480298005
0	1841	91.169634267061	0.0480298005
0	1842	91.2159519	0.0480298005
0	1843	91.269634267061	0.0480298005
0	1845	91.369634267061	0.0480298005
0	1846	91.410889016	0.0480298005
0	1847	91.469634267061	0.0480298005
0	1849	91.569634267061	0.0480298005
0	1849	91.581709128	0.0480298005
0	1851	91.669634267061	0.0480298005
0	1852	91.748918416	0.0480298005
0	1853	91.769634267061	0.0480298005
0	1855	91.869634267061	0.0480298005
0	1856	91.931596543	0.0480298005
0	1857	91.969634267061	0.0480298005
0	1859	92.069634267061	0.0480298005
0	1860	92.1557989	0.0480298005
0	1861	92.169634267061	0.0480298005
0	1863	92.269634267061	0.0480298005
0	1864	92.342624099	0.0480298005
0	1865	92.369634267061	0.0480298005
0	1867	92.469634267061	0.0480298005
0	1868	92.529218747	0.0480298005
0	1869	92.569634267061	0.0480298005
0	1871	92.669634267061	0.0480298005
0	1872	92.692766337	0.0480298005
0	1873	92.769634267061	0.0480298005
0	1874	92.861686713	0.0480298005
0	1875	92.869634267061	0.0480298005
0	1877	92.969634267061	0.0480298005
0	1878	93.045176552	0.0480298005
0	1879	93.069634267061	0.0480298005
0	1881	93.169634267061	0.0480298005
0	1882	93.190845215	0.0480298005
0	1883	93.269634267061	0.0480298005
0	1885	93.369634267061	0.0480298005
0	1886	93.40270111	0.0480298005
0	1887	93.469634267061	0.0480298005
0	1889	93.569634267061	0.0480298005
0	1890	93.633879747	0.0480298005
0	1891	93.669634267061	0.0480298005
0	1893	93.769634267061	0.0480298005
0	1894	93.833749984	0.0480298005
0	1895	93.869634267061	0.0480298005
0	1897	93.969634267061	0.0480298005
0	1898	94.024113827	0.0480298005
0	1899	94.069634267061	0.0480298005
0	1901	94.169634267061	0.0480298005
0	1902	94.231171245	0.0480298005
0	1903	94.269634267061	0.0480298005
0	1905	94.369634267061	0.0480298005
0	1906	94.391911727	0.0480298005
0	1907	94.469634267061	0.0480298005
0	1908	94.491953222	0.0480298005
0	1909	94.569634267061	0.0480298005
0	1910	94.587634603	0.0480298005
0	1911	94.669634267061	0.0480298005
0	1913	94.769634267061	0.0480298005
0	1913	94.776741097	0.0480298005
0	1915	94.869634267061	0.0480298005
0	1917	94.969634267061	0.0480298005
0	1918	94.991078011	0.0480298005
0	1919	95.069634267061	0.0480298005
0	1920	95.087092636	0.0480298005
0	1921	95.169634267061	0.0480298005
0	1921	95.180456573	0.0480298005
0	1923	95.269634267061	0.0480298005
0	1924	95.341702894	0.0480298005
0	1925	95.369634267061	0.0480298005
0	1927	95.469634267061	0.0480298005
0	1928	95.49302287	0.0480298005
0	1929	95.569634267061	0.0480298005
0	1931	95.669634267061	0.0480298005
0	1931	95.676042092	0.0480298005
0	1933	95.769634267061	0.0480298005
0	1934	95.846913964	0.0480298005
0	1935	95.869634267061	0.0480298005
0	1937	95.969634267061	0.0480298005
0	1938	96.005772288	0.0480298005
0	1939	96.069634267061	0.0480298005
0	1940	96.157443785	0.0480298005
0	1941	96.169634267061	0.0480298005
0	1943	96.269634267061	0.0480298005
0	1944	96.330555265	0.0480298005
0	1945	96.369634267061	0.0480298005
0	1947	96.469634267061	0.0480298005
0	1948	96.540727084	0.0480298005
0	1949	96.569634267061	0.0480298005
0	1951	96.669634267061	0.0480298005
0	1952	96.721397276	0.0480298005
0	1953	96.769634267061	0.0480298005
0	1954	96.81207567	0.0480298005
0	1955	96.869634267061	0.0480298005
0	1956	96.891209248	0.0480298005
0	1957	96.969634267061	0.0480298005
0	1958	97.041603053	0.0480298005
0	1959	97.069634267061	0.0480298005
0	1961	97.169634267061	0.0480298005
0	1962	97.208166327	0.0480298005
0	1963	97.269634267061	0.0480298005
0	1965	97.369634267061	0.0480298005
0	1965	97.373484446	0.0480298005
0	1967	97.469634267061	0.0480298005
0	1968	97.524355546	0.0480298005
0	1969	97.569634267061	0.0480298005
0	1971	97.669634267061	0.0480298005
0	1971	97.670802209	0.0480298005
0	1973	97.769634267061	0.0480298005
0	1974	97.824174301	0.0480298005
0	1975	97.869634267061	0.0480298005
0	1977	97.969634267061	0.0480298005
0	1978	98.000910507	0.0480298005
0	1979	98.069634267061	0.0480298005
0	1981	98.169634267061	0.0480298005
0	1982	98.218589358	0.0480298005
0	1983	98.269634267061	0.0480298005
0	1985	98.369634267061	0.0480298005
0	1985	98.381728942	0.0480298005
0	1987	98.469634267061	0.0480298005
0	1988	98.54888122	0.0480298005
0	1989	98.569634267061	0.0480298005
0	1991	98.669634267061	0.0480298005
0	1991	98.680665668	0.0480298005
0	1993	98.769634267061	0.0480298005
0	1994	98.831877378	0.0480298005
0	1995	98.869634267061	0.0480298005
0	1997	98.969634267061	0.0480298005
0	1997	98.983874065	0.0480298005
0	1999	99.069634267061	0.0480298005
0	1999	99.071112259	0.0480298005
0	2001	99.169634267061	0.0480298005
0	2002	99.222873192	0.0480298005
0	2003	99.269634267061	0.0480298005
0	2005	99.369634267061	0.0480298005
0	2006	99.412810347	0.0480298005
0	2007	99.469634267061	0.0480298005
0	2009	99.569634267061	0.0480298005
0	2010	99.597534309	0.0480298005
0	2011	99.669634267061	0.0480298005
0	2012	99.691300718	0.047549502495
0	2012	99.691300718	0.047549502495
0	2013	99.769634267061	0.047549502495
0	2014	99.832983394	0.047549502495
0	2015	99.869634267061	0.047549502495
0	2017	99.969634267061	0.047549502495
0	2018	100.04044535	0.047549502495
0	2019	100.069634267061	0.047549502495
0	2021	100.169634267061	0.047549502495
0	2022	100.233726755	0.047549502495
0	2023	100.269634267061	0.047549502495
0	2025	100.369634267061	0.047549502495
0	2026	100.439003574	0.047549502495
0	2027	100.469634267061	0.047549502495
0	2028	100.534119653	0.047549502495
0	2029	100.569634267061	0.047549502495
0	2031	100.669634267061	0.047549502495
0	2032	100.70420649	0.047549502495
0	2033	100.769634267061	0.047549502495
0	2034	100.869077137	0.047549502495
0	2035	100.869634267061	0.047549502495
0	2037	100.969634267061	0.047549502495
0	2038	101.052120357	0.047549502495
0	2039	101.069634267061	0.047549502495
0	2041	101.169634267061	0.047549502495
0	2042	101.237178795	0.047549502495
0	2043	101.269634267061	0.047549502495
0	2045	101.369634267061	0.047549502495
0	2046	101.444369732	0.047549502495
0	2047	101.469634267061	0.047549502495
0	2049	101.569634267061	0.047549502495
0	2050	101.619471696	0.047549502495
0	2051	101.669634267061	0.047549502495
0	2053	101.769634267061	0.047549502495
0	2053	101.770363456	0.047549502495
0	2054	101.862547123	0.04707400747005
0	2054	101.862547123	0.04707400747005
0	2055	101.869634267061	0.04707400747005
0	2057	101.969634267061	0.04707400747005
0	2058	102.004321438	0.04707400747005
0	2059	102.069634267061	0.04707400747005
0	2060	102.101978725	0.04707400747005
0	2061	102.169634267061	0.04707400747005
0	2062	102.248334108	0.04707400747005
0	2063	102.269634267061	0.04707400747005
0	2065	102.369634267061	0.04707400747005
0	2066	102.411795288	0.04707400747005
0	2067	102.469634267061	0.04707400747005
0	2069	102.569634267061	0.04707400747005
0	2070	102.587339684	0.04707400747005
0	2071	102.669634267061	0.04707400747005
0	2071	102.672015681	0.04707400747005
0	2072	102.738164009	0.04707400747005
0	2073	102.769634267061	0.04707400747005
0	2074	102.822686765	0.04707400747005
0	2075	102.869634267061	0.04707400747005
0	2076	102.915605164	0.04707400747005
0	2077	102.969634267061	0.04707400747005
0	2079	103.069634267061	0.04707400747005
0	2079	103.072759093	0.04707400747005
0	2081	103.169634267061	0.04707400747005
0	2082	103.210659416	0.04707400747005
0	2083	103.269634267061	0.04707400747005
0	2084	103.307244328	0.04707400747005
0	2085	103.369634267061	0.04707400747005
0	2086	103.458977223	0.04707400747005
0	2087	103.469634267061	0.04707400747005
0	2089	103.569634267061	0.04707400747005
0	2090	103.599720481	0.04707400747005
0	2091	103.669634267061	0.04707400747005
0	2092	103.752164234	0.04660326739535
0	2092	103.752164234	0.04660326739535
0	2093	103.769634267061	0.04660326739535
0	2095	103.869634267061	0.04660326739535
0	2096	103.909855899	0.04660326739535
0	2097	103.969634267061	0.04660326739535
0	2098	104.064730384	0.04660326739535
0	2099	104.069634267061	0.04660326739535
0	2101	104.169634267061	0.04660326739535
0	2102	104.219029926	0.04660326739535
0	2103	104.269634267061	0.04660326739535
0	2105	104.369634267061	0.04660326739535
0	2105	104.381320969	0.04660326739535
0	2107	104.469634267061	0.04660326739535
0	2108	104.516063167	0.04660326739535
0	2109	104.569634267061	0.04660326739535
0	2110	104.59249741	0.04660326739535
0	2111	104.669634267061	0.04660326739535
0	2111	104.677533328	0.04660326739535
0	2113	104.769634267061	0.04660326739535
0	2113	104.776321826	0.04660326739535
0	2115	104.869634267061	0.04660326739535
0	2116	104.930979136	0.04660326739535
0	2117	104.969634267061	0.04660326739535
0	2119	105.069634267061	0.04660326739535
0	2119	105.079461948	0.04660326739535
0	2121	105.169634267061	0.04660326739535
0	2121	105.178728188	0.04660326739535
0	2123	105.269634267061	0.04660326739535
0	2124	105.341210254	0.04660326739535
0	2125	105.369634267061	0.04660326739535
0	2127	105.469634267061	0.04660326739535
0	2127	105.478470755	0.04660326739535
0	2129	105.569634267061	0.04660326739535
0	2131	105.669634267061	0.04660326739535
0	2132	105.685195916	0.046137234721396
0	2132	105.685195916	0.046137234721396
0	2133	105.769634267061	0.046137234721396
0	2134	105.868278472	0.046137234721396
0	2135	105.869634267061	0.046137234721396
0	2137	105.969634267061	0.046137234721396
0	2139	106.069634267061	0.046137234721396
0	2139	106.081447606	0.046137234721396
0	2141	106.169634267061	0.046137234721396
0	2143	106.269634267061	0.046137234721396
0	2144	106.293553618	0.046137234721396
0	2145	106.369634267061	0.046137234721396
0	2146	106.385665536	0.046137234721396
0	2147	106.469634267061	0.046137234721396
0	2148	106.548490284	0.046137234721396
0	2149	106.569634267061	0.046137234721396
0	2151	106.669634267061	0.046137234721396
0	2152	106.710753956	0.046137234721396
0	2153	106.769634267061	0.046137234721396
0	2155	106.869634267061	0.046137234721396
0	2155	106.877364479	0.046137234721396
0	2157	106.969634267061	0.046137234721396
0	2158	107.049680322	0.046137234721396
0	2159	107.069634267061	0.046137234721396
0	2160	107.149767896	0.046137234721396
0	2161	107.169634267061	0.046137234721396
0	2163	107.269634267061	0.046137234721396
0	2164	107.337551314	0.046137234721396
0	2165	107.369634267061	0.046137234721396
0	2167	107.469634267061	0.046137234721396
0	2168	107.555436631	0.046137234721396
0	2169	107.569634267061	0.046137234721396
0	2171	107.669634267061	0.046137234721396
0	2172	107.762564005	0.046137234721396
0	2173	107.769634267061	0.046137234721396
0	2175	107.868092728488	0.046137234721396
0	2177	107.968092728488	0.046137234721396
0	2177	107.983438002	0.046137234721396
0	2179	108.068092728488	0.046137234721396
0	2181	108.168092728488	0.046137234721396
0	2181	108.168652469	0.046137234721396
0	2183	108.268092728488	0.046137234721396
0	2185	108.368092728488	0.046137234721396
0	2186	108.393009141	0.046137234721396
0	2187	108.468092728488	0.046137234721396
0	2189	108.568092728488	0.046137234721396
0	2190	108.607045721	0.046137234721396
0	2191	108.668092728488	0.046137234721396
0	2193	108.768092728488	0.046137234721396
0	2194	108.824978624	0.046137234721396
0	2195	108.868092728488	0.046137234721396
0	2196	108.965806096	0.046137234721396
0	2197	108.968092728488	0.046137234721396
0	2199	109.068092728488	0.046137234721396
0	2200	109.124356986	0.046137234721396
0	2201	109.168092728488	0.046137234721396
0	2203	109.268092728488	0.046137234721396
0	2203	109.283554374	0.046137234721396
0	2205	109.368092728488	0.046137234721396
0	2206	109.43386431	0.046137234721396
0	2207	109.468092728488	0.046137234721396
0	2208	109.516434245	0.046137234721396
0	2209	109.568092728488	0.046137234721396
0	2211	109.668092728488	0.046137234721396
0	2211	109.677628268	0.046137234721396
0	2213	109.768092728488	0.046137234721396
0	2213	109.777075988	0.046137234721396
0	2215	109.868092728488	0.046137234721396
0	2216	109.936504188	0.046137234721396
0	2217	109.968092728488	0.046137234721396
0	2219	110.068092728488	0.046137234721396
0	2220	110.100296542	0.046137234721396
0	2221	110.168092728488	0.046137234721396
0	2222	110.257830485	0.046137234721396
0	2223	110.268092728488	0.046137234721396
0	2225	110.368092728488	0.046137234721396
0	2226	110.422134241	0.046137234721396
0	2227	110.468092728488	0.046137234721396
0	2228	110.556684612	0.046137234721396
0	2229	110.568092728488	0.046137234721396
0	2231	110.668092728488	0.046137234721396
0	2232	110.719299078	0.046137234721396
0	2233	110.768092728488	0.046137234721396
0	2235	110.868092728488	0.046137234721396
0	2235	110.88219206	0.046137234721396
0	2237	110.968092728488	0.046137234721396
0	2237	110.976307746	0.046137234721396
0	2239	111.030610902678	0.046137234721396
0	2239	111.070382969	0.046137234721396
0	2241	111.130610902678	0.046137234721396
0	2243	111.230610902678	0.046137234721396
0	2243	111.246458495	0.046137234721396
0	2245	111.330610902678	0.046137234721396
0	2245	111.345432402	0.046137234721396
0	2247	111.430610902678	0.046137234721396
0	2248	111.511509563	0.046137234721396
0	2249	111.530610902678	0.046137234721396
0	2251	111.630610902678	0.046137234721396
0	2252	111.723532197	0.046137234721396
0	2253	111.730610902678	0.046137234721396
0	2254	111.818166406	0.046137234721396
0	2255	111.830610902678	0.046137234721396
0	2256	111.916275478	0.046137234721396
0	2257	111.930610902678	0.046137234721396
0	2259	112.030610902678	0.046137234721396
0	2260	112.097346345	0.046137234721396
0	2261	112.130610902678	0.046137234721396
0	2263	112.230610902678	0.046137234721396
0	2263	112.27119346	0.046137234721396
0	2265	112.330610902678	0.046137234721396
0	2267	112.430610902678	0.046137234721396
0	2267	112.474881723	0.046137234721396
0	2269	112.530610902678	0.046137234721396
0	2271	112.630610902678	0.046137234721396
0	2271	112.650124931	0.046137234721396
0	2273	112.730610902678	0.046137234721396
0	2274	112.813581936	0.046137234721396
0	2275	112.830610902678	0.046137234721396
0	2277	112.930610902678	0.046137234721396
0	2277	112.980176433	0.046137234721396
0	2279	113.030610902678	0.046137234721396
0	2280	113.110497104	0.046137234721396
0	2281	113.130610902678	0.046137234721396
0	2283	113.230610902678	0.046137234721396
0	2283	113.25633135	0.046137234721396
0	2285	113.330610902678	0.046137234721396
0	2286	113.414337474	0.046137234721396
0	2287	113.430610902678	0.046137234721396
0	2289	113.530610902678	0.046137234721396
0	2290	113.61716255	0.046137234721396
0	2291	113.630610902678	0.046137234721396
0	2293	113.730610902678	0.046137234721396
0	2294	113.805630733	0.046137234721396
0	2295	113.830610902678	0.046137234721396
0	2297	113.930610902678	0.046137234721396
0	2297	113.974468766	0.046137234721396
0	2299	114.030610902678	0.046137234721396
0	2301	114.130610902678	0.046137234721396
0	2301	114.133048961	0.046137234721396
0	2303	114.230610902678	0.046137234721396
0	2304	114.305696553	0.046137234721396
0	2305	114.330610902678	0.046137234721396
0	2306	114.391326171	0.046137234721396
0	2307	114.430610902678	0.046137234721396
0	2308	114.486521349	0.046137234721396
0	2309	114.530610902678	0.046137234721396
0	2311	114.630610902678	0.046137234721396
0	2311	114.641260305	0.046137234721396
0	2313	114.730610902678	0.046137234721396
0	2314	114.803336178	0.046137234721396
0	2315	114.830610902678	0.046137234721396
0	2317	114.930610902678	0.046137234721396
0	2318	114.990847856	0.046137234721396
0	2319	115.030610902678	0.046137234721396
0	2321	115.130610902678	0.046137234721396
0	2322	115.18621693	0.046137234721396
0	2323	115.230610902678	0.046137234721396
0	2324	115.325995356	0.046137234721396
0	2325	115.330610902678	0.046137234721396
0	2327	115.430610902678	0.046137234721396
0	2328	115.485260239	0.046137234721396
0	2329	115.530610902678	0.046137234721396
0	2331	115.630610902678	0.046137234721396
0	2331	115.64166456	0.046137234721396
0	2333	115.730610902678	0.046137234721396
0	2333	115.783910408	0.046137234721396
0	2335	115.830610902678	0.046137234721396
0	2337	115.930610902678	0.046137234721396
0	2338	116.008727916	0.046137234721396
0	2339	116.030610902678	0.046137234721396
0	2341	116.130610902678	0.046137234721396
0	2342	116.225226875	0.045675862374182
0	2342	116.225226875	0.045675862374182
0	2343	116.230610902678	0.045675862374182
0	2345	116.330610902678	0.045675862374182
0	2347	116.430610902678	0.045675862374182
0	2347	116.439298747	0.045675862374182
0	2349	116.530610902678	0.045675862374182
0	2350	116.59624996	0.045675862374182
0	2351	116.630610902678	0.045675862374182
0	2353	116.730610902678	0.045675862374182
0	2353	116.740980768	0.045675862374182
0	2355	116.830610902678	0.045675862374182
0	2356	116.900826774	0.045675862374182
0	2357	116.930610902678	0.045675862374182
0	2359	117.030610902678	0.045675862374182
0	2359	117.084128252	0.045675862374182
0	2361	117.130610902678	0.045675862374182
0	2363	117.230610902678	0.045675862374182
0	2363	117.26744811	0.045675862374182
0	2365	117.330610902678	0.045675862374182
0	2367	117.430610902678	0.045675862374182
0	2367	117.443289539	0.045675862374182
0	2369	117.530610902678	0.045675862374182
0	2370	117.629535586	0.045675862374182
0	2371	117.630610902678	0.045675862374182
0	2372	117.709792364	0.045675862374182
0	2373	117.730610902678	0.045675862374182
0	2375	117.830610902678	0.045675862374182
0	2375	117.864314208	0.045675862374182
0	2377	117.930610902678	0.045675862374182
0	2379	118.030610902678	0.045675862374182
0	2379	118.030851177	0.045675862374182
0	2380	118.126391314	0.045675862374182
0	2381	118.130610902678	0.045675862374182
0	2383	118.230610902678	0.045675862374182
0	2384	118.288778986	0.04521910375044
0	2384	118.288778986	0.04521910375044
0	2385	118.330610902678	0.04521910375044
0	2387	118.430610902678	0.04521910375044
0	2388	118.504319329	0.04521910375044
0	2389	118.530610902678	0.04521910375044
0	2391	118.630610902678	0.04521910375044
0	2392	118.691062257	0.04521910375044
0	2393	118.730610902678	0.04521910375044
0	2395	118.830610902678	0.04521910375044
0	2396	118.900915483	0.04521910375044
0	2397	118.930610902678	0.04521910375044
0	2399	119.030610902678	0.04521910375044
0	2399	119.082276543	0.04521910375044
0	2401	119.130610902678	0.04521910375044
0	2403	119.230610902678	0.04521910375044
0	2403	119.261570477	0.04521910375044
0	2405	119.330610902678	0.04521910375044
0	2406	119.427769558	0.044766912712936
0	2406	119.427769558	0.044766912712936
0	2407	119.430610902678	0.044766912712936
0	2409	119.530610902678	0.044766912712936
0	2411	119.630610902678	0.044766912712936
0	2411	119.637153586	0.044766912712936
0	2413	119.730610902678	0.044766912712936
0	2414	119.813609046	0.044766912712936
0	2415	119.830610902678	0.044766912712936
0	2417	119.930610902678	0.044766912712936
0	2417	119.97582247	0.044766912712936
0	2419	120.030610902678	0.044766912712936
0	2419	120.071068716	0.044766912712936
0	2421	120.130610902678	0.044766912712936
0	2421	120.166026867	0.044766912712936
0	2423	120.230610902678	0.044766912712936
0	2424	120.298433498	0.044766912712936
0	2425	120.330610902678	0.044766912712936
0	2427	120.40947064284	0.044766912712936
0	2427	120.443790903	0.044766912712936
0	2429	120.50947064284	0.044766912712936
0	2430	120.603114298	0.044766912712936
0	2431	120.60947064284	0.044766912712936
0	2433	120.70947064284	0.044766912712936
0	2433	120.763179227	0.044766912712936
0	2435	120.80947064284	0.044766912712936
0	2437	120.90947064284	0.044766912712936
0	2437	120.93310623	0.044766912712936
0	2439	121.00947064284	0.044766912712936
0	2441	121.10947064284	0.044766912712936
0	2441	121.120688375	0.044766912712936
0	2443	121.20947064284	0.044766912712936
0	2444	121.286112038	0.044766912712936
0	2445	121.30947064284	0.044766912712936
0	2445	121.378118736	0.044766912712936
0	2447	121.40947064284	0.044766912712936
0	2449	121.50947064284	0.044766912712936
0	2449	121.564367926	0.044766912712936
0	2451	121.60947064284	0.044766912712936
0	2452	121.694341002	0.044766912712936
0	2453	121.70947064284	0.044766912712936
0	2455	121.80947064284	0.044766912712936
0	2456	121.892669288	0.044766912712936
0	2457	121.90947064284	0.044766912712936
0	2459	122.00947064284	0.044766912712936
0	2460	122.057940628	0.044766912712936
0	2462	122.10947064284	0.044766912712936
0	2463	122.207181602	0.044766912712936
0	2464	122.20947064284	0.044766912712936
0	2465	122.302331955	0.044766912712936
0	2466	122.30947064284	0.044766912712936
0	2468	122.40947064284	0.044766912712936
0	2468	122.470279216	0.044319243585806
0	2468	122.470279216	0.044319243585806
0	2470	122.50947064284	0.044319243585806
0	2470	122.556038595	0.044319243585806
0	2472	122.60947064284	0.044319243585806
0	2473	122.699392148	0.044319243585806
0	2474	122.70947064284	0.044319243585806
0	2476	122.80947064284	0.044319243585806
0	2476	122.868965157	0.044319243585806
0	2478	122.90947064284	0.044319243585806
0	2480	123.00947064284	0.044319243585806
0	2480	123.028471454	0.044319243585806
0	2482	123.10947064284	0.044319243585806
0	2482	123.171905864	0.044319243585806
0	2484	123.20947064284	0.044319243585806
0	2484	123.25369171	0.044319243585806
0	2486	123.30947064284	0.044319243585806
0	2486	123.342653345	0.044319243585806
0	2488	123.40947064284	0.043876051149948
0	2488	123.40947064284	0.043876051149948
0	2489	123.498969353	0.043876051149948
0	2490	123.50947064284	0.043876051149948
0	2492	123.60947064284	0.043876051149948
0	2492	123.633424217	0.043876051149948
0	2494	123.70947064284	0.043876051149948
0	2496	123.80947064284	0.043876051149948
0	2497	123.893381689	0.043876051149948
0	2498	123.90947064284	0.043876051149948
0	2500	124.00947064284	0.043876051149948
0	2501	124.055865472067	0.043876051149948
0	2502	124.10828738	0.043876051149948
0	2503	124.155865472067	0.043876051149948
0	2505	124.255865472067	0.043876051149948
0	2506	124.290582582	0.043876051149948
0	2507	124.355865472067	0.043876051149948
0	2508	124.452133361	0.043876051149948
0	2509	124.455865472067	0.043876051149948
0	2511	124.555865472067	0.043876051149948
0	2512	124.590387061	0.043876051149948
0	2513	124.655865472067	0.043876051149948
0	2514	124.750752299	0.043876051149948
0	2515	124.755865472067	0.043876051149948
0	2517	124.855865472067	0.043876051149948
0	2518	124.918498033	0.043876051149948
0	2519	124.955865472067	0.043876051149948
0	2521	125.055865472067	0.043876051149948
0	2522	125.101007773	0.043876051149948
0	2523	125.155865472067	0.043876051149948
0	2525	125.255865472067	0.043876051149948
0	2526	125.290112731	0.043876051149948
0	2527	125.355865472067	0.043876051149948
0	2529	125.455865472067	0.043876051149948
0	2530	125.50136096	0.043876051149948
0	2531	125.555865472067	0.043876051149948
0	2533	125.655865472067	0.043876051149948
0	2534	125.697025916	0.043876051149948
0	2535	125.755865472067	0.043876051149948
0	2537	125.855865472067	0.043876051149948
0	2537	125.867905436	0.043876051149948
0	2539	125.955865472067	0.043876051149948
0	2539	125.966341777	0.043876051149948
0	2541	126.055865472067	0.043876051149948
0	2542	126.129892781	0.043876051149948
0	2543	126.155865472067	0.043876051149948
0	2545	126.255865472067	0.043876051149948
0	2545	126.276945587	0.043876051149948
0	2547	126.355865472067	0.043876051149948
0	2548	126.442048223	0.043876051149948
0	2549	126.455865472067	0.043876051149948
0	2551	126.555865472067	0.043876051149948
0	2552	126.645857787	0.043437290638449
0	2552	126.645857787	0.043437290638449
0	2553	126.655865472067	0.043437290638449
0	2555	126.755865472067	0.043437290638449
0	2556	126.847596723	0.043437290638449
0	2557	126.855865472067	0.043437290638449
0	2559	126.955865472067	0.043437290638449
0	2560	127.013005308	0.043437290638449
0	2561	127.055865472067	0.043437290638449
0	2563	127.155865472067	0.043437290638449
0	2564	127.200406076	0.043437290638449
0	2565	127.255865472067	0.043437290638449
0	2567	127.355865472067	0.043437290638449
0	2567	127.358621729	0.043437290638449
0	2569	127.455865472067	0.043437290638449
0	2571	127.555865472067	0.043437290638449
0	2571	127.556887685	0.043437290638449
0	2573	127.655865472067	0.043437290638449
0	2575	127.755865472067	0.043437290638449
0	2575	127.769006225	0.043437290638449
0	2577	127.855865472067	0.043437290638449
0	2579	127.955865472067	0.043437290638449
0	2580	127.989326452	0.043437290638449
0	2581	128.055865472067	0.043437290638449
0	2583	128.155865472067	0.043437290638449
0	2584	128.187105963	0.043437290638449
0	2585	128.255865472067	0.043437290638449
0	2587	128.355865472067	0.043437290638449
0	2587	128.360200397	0.043437290638449
0	2589	128.455865472067	0.043437290638449
0	2590	128.507866501	0.043437290638449
0	2591	128.555865472067	0.043437290638449
0	2593	128.655865472067	0.043437290638449
0	2593	128.667139967	0.043437290638449
0	2595	128.755865472067	0.043437290638449
0	2596	128.841051348	0.043002917732064
0	2596	128.841051348	0.043002917732064
0	2597	128.855865472067	0.043002917732064
0	2599	128.955865472067	0.043002917732064
0	2600	129.04973836	0.043002917732064
0	2601	129.055865472067	0.043002917732064
0	2603	129.155865472067	0.043002917732064
0	2604	129.200970969	0.043002917732064
0	2605	129.255865472067	0.043002917732064
0	2606	129.351051834	0.043002917732064
0	2607	129.355865472067	0.043002917732064
0	2609	129.455865472067	0.043002917732064
0	2610	129.497216436	0.043002917732064
0	2611	129.555865472067	0.043002917732064
0	2612	129.638773957	0.043002917732064
0	2613	129.655865472067	0.043002917732064
0	2615	129.730278175112	0.043002917732064
0	2616	129.792912014	0.043002917732064
0	2617	129.830278175112	0.043002917732064
0	2619	129.930278175112	0.043002917732064
0	2619	129.980648564	0.043002917732064
0	2621	130.030278175112	0.043002917732064
0	2623	130.130278175112	0.043002917732064
0	2624	130.197409219	0.043002917732064
0	2625	130.230278175112	0.043002917732064
0	2628	130.330278175112	0.043002917732064
0	2628	130.38141583	0.043002917732064
0	2630	130.430278175112	0.043002917732064
0	2632	130.530278175112	0.043002917732064
0	2632	130.613978758	0.043002917732064
0	2634	130.630278175112	0.043002917732064
0	2636	130.730278175112	0.043002917732064
0	2637	130.818318912	0.043002917732064
0	2638	130.830278175112	0.043002917732064
0	2640	130.930278175112	0.043002917732064
0	2642	131.030278175112	0.042572888554744
0	2642	131.030278175112	0.042572888554744
0	2642	131.04033855	0.042572888554744
0	2644	131.130278175112	0.042572888554744
0	2645	131.216877213	0.042572888554744
0	2646	131.230278175112	0.042572888554744
0	2648	131.330278175112	0.042572888554744
0	2648	131.378406295	0.042572888554744
0	2650	131.430278175112	0.042572888554744
0	2652	131.530278175112	0.042572888554744
0	2652	131.563409638	0.042572888554744
0	2654	131.630278175112	0.042572888554744
0	2656	131.730278175112	0.042572888554744
0	2658	131.830278175112	0.042572888554744
0	2658	131.837835786	0.042572888554744
0	2660	131.930278175112	0.042572888554744
0	2660	131.979891943	0.042572888554744
0	2662	132.030278175112	0.042572888554744
0	2664	132.130278175112	0.042147159669196
0	2664	132.130278175112	0.042147159669196
0	2664	132.139288998	0.042147159669196
0	2666	132.230278175112	0.042147159669196
0	2668	132.330278175112	0.042147159669196
0	2668	132.363547748	0.042147159669196
0	2670	132.430278175112	0.042147159669196
0	2671	132.525020455	0.042147159669196
0	2672	132.530278175112	0.042147159669196
0	2674	132.630278175112	0.042147159669196
0	2674	132.654188764	0.042147159669196
0	2676	132.730278175112	0.042147159669196
0	2678	132.830278175112	0.042147159669196
0	2678	132.866510754	0.042147159669196
0	2680	132.930278175112	0.042147159669196
0	2681	133.019940128	0.042147159669196
0	2682	133.030278175112	0.042147159669196
0	2684	133.130278175112	0.042147159669196
0	2684	133.167892298	0.041725688072504
0	2684	133.167892298	0.041725688072504
0	2686	133.230278175112	0.041725688072504
0	2688	133.330278175112	0.041725688072504
0	2688	133.361394784	0.041725688072504
0	2690	133.430278175112	0.041725688072504
0	2691	133.524994259	0.041725688072504
0	2692	133.530278175112	0.041725688072504
0	2694	133.630278175112	0.041725688072504
0	2696	133.730278175112	0.041725688072504
0	2696	133.738171078	0.041725688072504
0	2698	133.830278175112	0.041725688072504
0	2699	133.901982876	0.041725688072504
0	2700	133.930278175112	0.041725688072504
0	2702	133.969044571172	0.041725688072504
0	2704	134.069044571172	0.041725688072504
0	2704	134.08620648	0.041725688072504
0	2706	134.169044571172	0.041725688072504
0	2707	134.26662238	0.041725688072504
0	2708	134.269044571172	0.041725688072504
0	2710	134.369044571172	0.041725688072504
0	2710	134.405878401	0.041725688072504
0	2712	134.469044571172	0.041725688072504
0	2714	134.569044571172	0.041725688072504
0	2714	134.576584457	0.041725688072504
0	2716	134.669044571172	0.041725688072504
0	2718	134.769044571172	0.041725688072504
0	2718	134.787735339	0.041725688072504
0	2720	134.869044571172	0.041725688072504
0	2722	134.969044571172	0.041725688072504
0	2722	134.969394022	0.041725688072504
0	2724	135.069044571172	0.041725688072504
0	2724	135.125924411	0.041725688072504
0	2726	135.169044571172	0.041725688072504
0	2727	135.268979121	0.041725688072504
0	2728	135.269044571172	0.041308431191779
0	2728	135.269044571172	0.041308431191779
0	2730	135.369044571172	0.041308431191779
0	2730	135.434201687	0.041308431191779
0	2732	135.469044571172	0.041308431191779
0	2734	135.569044571172	0.041308431191779
0	2734	135.623705133	0.041308431191779
0	2736	135.669044571172	0.041308431191779
0	2738	135.769044571172	0.041308431191779
0	2738	135.815500014	0.041308431191779
0	2740	135.869044571172	0.041308431191779
0	2742	135.969044571172	0.041308431191779
0	2742	135.984101	0.041308431191779
0	2744	136.069044571172	0.041308431191779
0	2744	136.129049707	0.041308431191779
0	2746	136.169044571172	0.041308431191779
0	2746	136.226496772	0.041308431191779
0	2748	136.269044571172	0.041308431191779
0	2749	136.366254621	0.041308431191779
0	2750	136.369044571172	0.041308431191779
0	2752	136.469044571172	0.041308431191779
0	2752	136.503218461	0.041308431191779
0	2754	136.569044571172	0.041308431191779
0	2756	136.669044571172	0.041308431191779
0	2756	136.683611735	0.041308431191779
0	2758	136.769044571172	0.041308431191779
0	2760	136.869044571172	0.041308431191779
0	2760	136.925761431	0.041308431191779
0	2762	136.969044571172	0.041308431191779
0	2764	137.069044571172	0.041308431191779
0	2764	137.14404242	0.041308431191779
0	2766	137.169044571172	0.041308431191779
0	2768	137.269044571172	0.041308431191779
0	2770	137.369044571172	0.041308431191779
0	2770	137.372531894	0.041308431191779
0	2772	137.469044571172	0.040895346879862
0	2772	137.469044571172	0.040895346879862
0	2772	137.539555661	0.040895346879862
0	2774	137.569044571172	0.040895346879862
0	2774	137.623165173	0.040895346879862
0	2776	137.669044571172	0.040895346879862
0	2777	137.768869139	0.040895346879862
0	2778	137.769044571172	0.040895346879862
0	2778	137.862779323	0.040895346879862
0	2780	137.869044571172	0.040895346879862
0	2782	137.969044571172	0.040895346879862
0	2784	138.069044571172	0.040895346879862
0	2784	138.071335329	0.040895346879862
0	2786	138.169044571172	0.040895346879862
0	2786	138.243276388	0.040895346879862
0	2788	138.269044571172	0.040895346879862
0	2790	138.369044571172	0.040895346879862
0	2790	138.436902174	0.040895346879862
0	2792	138.469044571172	0.040486393411063
0	2792	138.469044571172	0.040486393411063
0	2794	138.569044571172	0.040486393411063
0	2794	138.651671269	0.040486393411063
0	2796	138.669044571172	0.040486393411063
0	2798	138.769044571172	0.040486393411063
0	2798	138.837646634	0.040486393411063
0	2800	138.869044571172	0.040486393411063
0	2802	138.969044571172	0.040486393411063
0	2802	138.983622822	0.040486393411063
0	2804	139.069044571172	0.040486393411063
0	2804	139.134750501	0.040486393411063
0	2806	139.169044571172	0.040486393411063
0	2808	139.269044571172	0.040486393411063
0	2808	139.293538047	0.040486393411063
0	2810	139.369044571172	0.040486393411063
0	2810	139.441940054	0.040486393411063
0	2812	139.469044571172	0.040486393411063
0	2812	139.530235697	0.040081529476952
0	2812	139.530235697	0.040081529476952
0	2814	139.569044571172	0.040081529476952
0	2816	139.669044571172	0.040081529476952
0	2816	139.727736972	0.040081529476952
0	2818	139.769044571172	0.040081529476952
0	2820	139.869044571172	0.040081529476952
0	2820	139.924044725	0.040081529476952
0	2822	139.969044571172	0.040081529476952
0	2824	140.069044571172	0.040081529476952
0	2824	140.089554683	0.040081529476952
0	2826	140.169044571172	0.040081529476952
0	2826	140.221112636	0.040081529476952
0	2828	140.269044571172	0.040081529476952
0	2830	140.369044571172	0.040081529476952
0	2830	140.384545435	0.040081529476952
0	2832	140.469044571172	0.040081529476952
0	2832	140.479117277	0.040081529476952
0	2832	140.559962518	0.039680714182183
0	2832	140.559962518	0.039680714182183
0	2834	140.569044571172	0.039680714182183
0	2836	140.669044571172	0.039680714182183
0	2836	140.699618802	0.039680714182183
0	2838	140.769044571172	0.039680714182183
0	2838	140.853219954	0.039680714182183
0	2840	140.869044571172	0.039680714182183
0	2842	140.969044571172	0.039680714182183
0	2842	141.036811171	0.039680714182183
0	2844	141.069044571172	0.039680714182183
0	2846	141.169044571172	0.039680714182183
0	2846	141.203136076	0.039680714182183
0	2848	141.269044571172	0.039680714182183
0	2848	141.295859587	0.039680714182183
0	2851	141.369044571172	0.039680714182183
0	2852	141.441660193	0.039680714182183
0	2854	141.469044571172	0.039283907040361
0	2854	141.469044571172	0.039283907040361
0	2857	141.569044571172	0.039283907040361
0	2857	141.615349893	0.039283907040361
0	2860	141.669044571172	0.039283907040361
0	2860	141.698985379	0.039283907040361
0	2862	141.769044571172	0.039283907040361
0	2863	141.846044333	0.039283907040361
0	2865	141.869044571172	0.039283907040361
0	2868	141.969044571172	0.039283907040361
0	2868	142.00096974	0.039283907040361
0	2871	142.069044571172	0.039283907040361
0	2871	142.154408535	0.039283907040361
0	2873	142.169044571172	0.039283907040361
0	2875	142.269044571172	0.039283907040361
0	2876	142.363940124	0.038891067969957
0	2876	142.363940124	0.038891067969957
0	2877	142.369044571172	0.038891067969957
0	2879	142.469044571172	0.038891067969957
0	2879	142.560607753	0.038891067969957
0	2881	142.569044571172	0.038891067969957
0	2883	142.669044571172	0.038891067969957
0	2883	142.715431676	0.038891067969957
0	2885	142.769044571172	0.038891067969957
0	2887	142.869044571172	0.038891067969957
0	2887	142.90368661	0.038891067969957
0	2889	142.969044571172	0.038891067969957
0	2889	143.063063395	0.038891067969957
0	2891	143.069044571172	0.038891067969957
0	2893	143.169044571172	0.038891067969957
0	2893	143.219471614	0.038891067969957
0	2895	143.269044571172	0.038891067969957
0	2895	143.316449656	0.038891067969957
0	2897	143.369044571172	0.038891067969957
0	2899	143.469044571172	0.038891067969957
0	2899	143.552418486	0.038891067969957
0	2901	143.569044571172	0.038891067969957
0	2903	143.669044571172	0.038891067969957
0	2905	143.769044571172	0.038891067969957
0	2905	143.791761642	0.038891067969957
0	2907	143.869044571172	0.038891067969957
0	2909	143.969044571172	0.038891067969957
0	2909	143.972037303	0.038891067969957
0	2911	144.069044571172	0.038891067969957
0	2912	144.156844302	0.038891067969957
0	2913	144.169044571172	0.038891067969957
0	2915	144.269044571172	0.038891067969957
0	2915	144.340879346	0.038891067969957
0	2917	144.369044571172	0.038891067969957
0	2919	144.469044571172	0.038891067969957
0	2919	144.520358553	0.038891067969957
0	2921	144.569044571172	0.038891067969957
0	2922	144.602541951569	0.038891067969957
0	2924	144.702541951569	0.038891067969957
0	2924	144.704065168	0.038891067969957
0	2926	144.802541951569	0.038891067969957
0	2927	144.890626144	0.038891067969957
0	2928	144.902541951569	0.038891067969957
0	2930	145.002541951569	0.038891067969957
0	2930	145.03326839	0.038891067969957
0	2932	145.102541951569	0.038891067969957
0	2933	145.18269441	0.038891067969957
[...]
2	3776	185.634768878147	0.043545252030006
2	3778	185.734768878147	0.043545252030006
2	3778	185.758910577	0.043545252030006
2	3780	185.834768878147	0.043109799509706
2	3780	185.834768878147	0.043109799509706
2	3781	185.918602428	0.043109799509706
2	3782	185.934768878147	0.043109799509706
2	3784	186.034768878147	0.043109799509706
2	3786	186.134768878147	0.043109799509706
2	3786	186.148045771	0.043109799509706
2	3789	186.234768878147	0.043109799509706
2	3790	186.321906736	0.043109799509706
2	3791	186.334768878147	0.043109799509706
2	3792	186.403147412	0.043109799509706
2	3793	186.434768878147	0.043109799509706
2	3795	186.534768878147	0.043109799509706
2	3795	186.578795166	0.043109799509706
2	3797	186.634768878147	0.043109799509706
2	3799	186.734768878147	0.043109799509706
2	3799	186.760837063	0.043109799509706
2	3801	186.834768878147	0.043109799509706
2	3803	186.934768878147	0.043109799509706
2	3803	186.960135054	0.043109799509706
2	3805	187.034768878147	0.043109799509706
2	3807	187.134768878147	0.043109799509706
2	3807	187.139425175	0.043109799509706
2	3809	187.234768878147	0.043109799509706
2	3811	187.334768878147	0.043109799509706
2	3812	187.393933519	0.043109799509706
2	3813	187.434768878147	0.043109799509706
2	3815	187.534768878147	0.043109799509706
2	3815	187.567365114	0.043109799509706
2	3817	187.634768878147	0.043109799509706
2	3819	187.734768878147	0.043109799509706
2	3819	187.743852338	0.043109799509706
2	3821	187.834768878147	0.043109799509706
2	3823	187.934768878147	0.043109799509706
2	3824	187.999870936	0.043109799509706
2	3825	188.034768878147	0.043109799509706
2	3827	188.134768878147	0.043109799509706
2	3827	188.164854893	0.043109799509706
2	3829	188.234768878147	0.043109799509706
2	3831	188.334768878147	0.043109799509706
2	3831	188.383438153	0.043109799509706
2	3833	188.434768878147	0.043109799509706
2	3835	188.534768878147	0.043109799509706
2	3835	188.553108894	0.043109799509706
2	3837	188.634768878147	0.043109799509706
2	3839	188.734768878147	0.043109799509706
2	3839	188.739701174	0.043109799509706
2	3841	188.834768878147	0.043109799509706
2	3842	188.892439492	0.043109799509706
2	3843	188.934768878147	0.043109799509706
2	3845	189.034768878147	0.043109799509706
2	3845	189.082883439	0.043109799509706
2	3847	189.134768878147	0.043109799509706
2	3849	189.234768878147	0.043109799509706
2	3849	189.259468007	0.043109799509706
2	3851	189.334768878147	0.043109799509706
2	3852	189.420836232	0.043109799509706
2	3853	189.434768878147	0.043109799509706
2	3855	189.534768878147	0.043109799509706
2	3855	189.566597904	0.043109799509706
2	3857	189.634768878147	0.043109799509706
2	3857	189.663110641	0.043109799509706
2	3859	189.734768878147	0.043109799509706
2	3860	189.800692291	0.043109799509706
2	3861	189.834768878147	0.043109799509706
2	3862	189.892916368	0.043109799509706
2	3863	189.934768878147	0.043109799509706
2	3865	190.034768878147	0.043109799509706
2	3865	190.049319765	0.043109799509706
2	3867	190.134768878147	0.043109799509706
2	3867	190.14937733	0.043109799509706
2	3869	190.234768878147	0.043109799509706
2	3869	190.239642252	0.043109799509706
2	3871	190.334768878147	0.043109799509706
2	3872	190.391209693	0.043109799509706
2	3873	190.434768878147	0.043109799509706
2	3873	190.47479522	0.043109799509706
2	3875	190.534768878147	0.043109799509706
2	3876	190.620458802	0.043109799509706
2	3877	190.634768878147	0.043109799509706
2	3878	190.641701027487	0.043109799509706
2	3880	190.734768878147	0.043482070912346
2	3881	190.73925115006	0.0435
2	3883	190.834768878147	0.043882070912348
2	3883	190.83666441	0.04388965303976
2	3884	190.86425115006	0.044
2	3886	190.934768878147	0.044282070912348
2	3888	190.98925115006	0.044055
2	3888	190.98925115006	0.044055
2	3888	191.019601565	0.04417640165976
2	3889	191.034768878147	0.044237070912348
2	3891	191.10050115006	0.0445
2	3892	191.134768878147	0.044637070912348
2	3893	191.190892138	0.04486156395176
2	3894	191.22550115006	0.045
2	3895	191.234768878147	0.045037070912348
2	3896	191.322607873	0.04538842689176
2	3897	191.334768878147	0.045437070912348
2	3898	191.35050115006	0.0455
2	3900	191.434768878147	0.045837070912348
2	3901	191.47550115006	0.046
2	3901	191.488032494	0.04605012537576
2	3903	191.534768878147	0.046237070912348
2	3905	191.60050115006	0.0465
2	3906	191.634768878147	0.046637070912348
2	3906	191.642590096	0.04666835578376
2	3908	191.72550115006	0.047
2	3909	191.734768878147	0.047037070912348
2	3910	191.824486318	0.04739594067176
2	3911	191.834768878147	0.047437070912348
2	3912	191.85050115006	0.0475
2	3914	191.934768878147	0.047837070912348
2	3915	191.97550115006	0.048
2	3916	192.011526559	0.04814410163576
2	3917	192.034768878147	0.048237070912348
2	3919	192.10050115006	0.0485
2	3920	192.134768878147	0.048637070912348
2	3920	192.184091838	0.04883436275176
2	3922	192.22550115006	0.049
2	3923	192.234768878147	0.049037070912348
2	3924	192.325741155	0.04940096001976
2	3925	192.334768878147	0.049437070912348
2	3926	192.35050115006	0.0495
2	3928	192.434768878147	0.049837070912348
2	3928	192.473764987	0.04999305534776
2	3929	192.47550115006	0.05
2	3931	192.534768878147	0.05
2	3933	192.634768878147	0.05
2	3933	192.647687156	0.05
2	3935	192.734768878147	0.05
2	3936	192.80637178	0.05
2	3937	192.834768878147	0.05
2	3938	192.896999277	0.05
2	3939	192.934768878147	0.05
2	3941	193.034768878147	0.05
2	3941	193.045637286	0.05
2	3943	193.134768878147	0.05
2	3945	193.234768878147	0.05
2	3945	193.268294182	0.05
2	3947	193.334768878147	0.05
2	3949	193.434768878147	0.05
2	3949	193.455142233	0.05
2	3951	193.534768878147	0.05
2	3952	193.617543344	0.05
2	3953	193.634768878147	0.05
2	3955	193.734768878147	0.05
2	3956	193.812697707	0.05
2	3957	193.834768878147	0.05
2	3959	193.934768878147	0.05
2	3960	194.014225965	0.05
2	3961	194.034768878147	0.05
2	3963	194.134768878147	0.05
2	3965	194.234768878147	0.05
2	3965	194.261479615	0.05
2	3967	194.334768878147	0.05
2	3969	194.434768878147	0.05
2	3969	194.452203934	0.05
2	3971	194.534768878147	0.05
2	3973	194.634768878147	0.05
2	3973	194.67207558	0.05
2	3975	194.734768878147	0.05
2	3977	194.834768878147	0.05
2	3977	194.881001795	0.05
2	3979	194.934768878147	0.05
2	3980	195.031566841	0.05
2	3981	195.034768878147	0.05
2	3983	195.134768878147	0.05
2	3985	195.234768878147	0.05
2	3986	195.314537769	0.05
2	3987	195.334768878147	0.05
2	3989	195.434768878147	0.05
2	3991	195.534768878147	0.05
2	3991	195.540100762	0.05
2	3993	195.634768878147	0.05
2	3995	195.734768878147	0.05
2	3995	195.757170421	0.05
2	3997	195.834768878147	0.05
2	3998	195.902688612	0.05
2	3999	195.934768878147	0.05
2	4001	196.034768878147	0.05
2	4001	196.068154902	0.0495
2	4001	196.068154902	0.0495
2	4003	196.134768878147	0.049766455904588
2	4005	196.234768878147	0.05
2	4006	196.304404062	0.05
2	4007	196.334768878147	0.05
2	4009	196.434768878147	0.05
2	4011	196.534768878147	0.05
2	4011	196.570779852	0.05
2	4013	196.634768878147	0.05
2	4015	196.734768878147	0.05
2	4015	196.739565552	0.05
2	4016	196.831509147	0.05
2	4017	196.834768878147	0.05
2	4018	196.91629844	0.05
2	4019	196.934768878147	0.05
2	4021	197.034768878147	0.05
2	4022	197.0897384	0.05
2	4023	197.134768878147	0.05
2	4025	197.234768878147	0.05
2	4025	197.262188493	0.05
2	4027	197.334768878147	0.05
2	4028	197.429498911	0.05
2	4029	197.434768878147	0.05
2	4031	197.534768878147	0.05
2	4033	197.634768878147	0.05
2	4033	197.635309996	0.05
2	4035	197.734768878147	0.05
2	4035	197.779194408	0.05
2	4037	197.834768878147	0.05
2	4039	197.934768878147	0.05
2	4039	197.960548561	0.05
2	4041	198.034768878147	0.05
2	4043	198.134768878147	0.05
2	4044	198.198638408	0.05
2	4045	198.234768878147	0.05
2	4047	198.334768878147	0.05
2	4049	198.434768878147	0.05
2	4050	198.510971205	0.05
2	4051	198.534768878147	0.05
2	4053	198.634768878147	0.05
2	4054	198.702913231	0.05
2	4055	198.734768878147	0.05
2	4058	198.834768878147	0.05
2	4058	198.886508069	0.05
2	4060	198.934768878147	0.05
2	4061	199.032825361	0.05
2	4062	199.034768878147	0.05
2	4064	199.134768878147	0.05
2	4065	199.198030716	0.05
2	4066	199.234768878147	0.05
2	4068	199.334768878147	0.0495
2	4068	199.334768878147	0.0495
2	4068	199.362687556	0.049611674711412
2	4070	199.434768878147	0.0499
2	4070	199.459864407	0.05
2	4072	199.534768878147	0.05
2	4073	199.625727997	0.05
2	4074	199.634768878147	0.05
2	4075	199.723833567	0.05
2	4076	199.734768878147	0.05
2	4078	199.834768878147	0.05
2	4079	199.899825294	0.05
2	4080	199.934768878147	0.05
2	4082	200.034768878147	0.05
2	4082	200.070784717	0.05
2	4084	200.134768878147	0.05
2	4085	200.209874996	0.05
2	4086	200.234768878147	0.05
2	4088	200.334768878147	0.0495
2	4088	200.334768878147	0.0495
2	4088	200.33764939	0.049511522047412
2	4089	200.429447433	0.049878714219412
2	4090	200.434768878147	0.0499
2	4092	200.534768878147	0.05
2	4093	200.594957556	0.05
2	4094	200.634768878147	0.05
2	4096	200.734768878147	0.05
2	4096	200.740621222	0.05
2	4097	200.823438642	0.05
2	4098	200.834768878147	0.05
2	4100	200.934768878147	0.05
2	4100	200.975624685	0.05
2	4102	201.034768878147	0.05
2	4103	201.125816316	0.05
2	4104	201.134768878147	0.05
2	4106	201.234768878147	0.05
2	4106	201.262536282	0.05
2	4108	201.334768878147	0.05
2	4108	201.347871673	0.05
2	4110	201.434768878147	0.05
2	4110	201.446974637	0.05
2	4112	201.534768878147	0.05
2	4113	201.608375991	0.05
2	4114	201.634768878147	0.05
2	4116	201.734768878147	0.05
2	4116	201.771184188	0.05
2	4118	201.834768878147	0.05
2	4119	201.931716424	0.05
2	4120	201.934768878147	0.05
2	4122	202.034768878147	0.05
2	4122	202.081166091	0.05
2	4124	202.134768878147	0.05
2	4124	202.171582161	0.05
2	4126	202.234768878147	0.0495
2	4126	202.234768878147	0.0495
2	4128	202.334768878147	0.0499
2	4128	202.369540482	0.05
2	4130	202.434768878147	0.05
2	4132	202.534768878147	0.05
2	4132	202.54551256	0.05
2	4134	202.634768878147	0.05
2	4136	202.734768878147	0.05
2	4136	202.736206697	0.05
2	4138	202.834768878147	0.05
2	4139	202.908076379	0.05
2	4140	202.934768878147	0.05
2	4142	203.034768878147	0.05
2	4142	203.069714891	0.05
2	4144	203.134768878147	0.05
2	4145	203.206503007	0.05
2	4146	203.234768878147	0.05
2	4148	203.334768878147	0.0495
2	4148	203.334768878147	0.0495
2	4148	203.366872017	0.049628412555412
2	4150	203.434768878147	0.0499
2	4152	203.534768878147	0.05
2	4152	203.591086261	0.05
2	4154	203.634768878147	0.05
2	4156	203.734768878147	0.05
2	4156	203.761557264	0.05
2	4158	203.834768878147	0.05
2	4158	203.857956859	0.05
2	4160	203.934768878147	0.05
2	4161	204.000256059	0.05
2	4162	204.034768878147	0.05
2	4162	204.087786852	0.05
2	4164	204.134768878147	0.05
2	4166	204.234768878147	0.05
2	4166	204.25398863	0.05
2	4168	204.334768878147	0.0495
2	4168	204.334768878147	0.0495
2	4169	204.406863365	0.049788377947412
2	4170	204.434768878147	0.0499
2	4172	204.534768878147	0.05
2	4172	204.562546238	0.05
2	4174	204.634768878147	0.05
2	4174	204.644260354	0.05
2	4176	204.734768878147	0.05
2	4177	204.827603334	0.05
2	4178	204.834768878147	0.05
2	4180	204.934768878147	0.05
2	4181	205.014150861	0.05
2	4182	205.034768878147	0.05
2	4184	205.134768878147	0.05
2	4184	205.180087684	0.05
2	4186	205.234768878147	0.05
2	4187	205.311659504	0.05
2	4188	205.334768878147	0.0495
2	4188	205.334768878147	0.0495
2	4190	205.434768878147	0.0499
2	4190	205.463263735	0.05
2	4192	205.534768878147	0.05
2	4193	205.598464941	0.05
2	4194	205.634768878147	0.05
2	4196	205.734768878147	0.05
2	4196	205.752765981	0.05
2	4198	205.834768878147	0.05
2	4200	205.934768878147	0.05
2	4200	205.972812925	0.05
2	4202	206.034768878147	0.05
2	4203	206.117693903	0.05
2	4204	206.134768878147	0.05
2	4206	206.234768878147	0.05
2	4206	206.264459197	0.05
2	4208	206.334768878147	0.05
2	4209	206.396307242	0.0495
2	4209	206.396307242	0.0495
2	4210	206.434768878147	0.049653846544588
2	4211	206.531859407	0.05
2	4212	206.534768878147	0.05
2	4214	206.634768878147	0.05
2	4214	206.676377689	0.05
2	4216	206.734768878147	0.05
2	4216	206.776043897	0.05
2	4218	206.834768878147	0.05
2	4220	206.934768878147	0.05
2	4220	206.965280525	0.05
2	4222	207.034768878147	0.05
2	4224	207.134768878147	0.05
2	4224	207.160513105	0.05
2	4226	207.234768878147	0.05
2	4227	207.327518561	0.05
2	4228	207.334768878147	0.05
2	4230	207.434768878147	0.0495
2	4230	207.434768878147	0.0495
2	4230	207.489848315	0.049720317747412
2	4232	207.534768878147	0.0499
2	4233	207.634547247	0.05
2	4234	207.634768878147	0.05
2	4236	207.734768878147	0.05
2	4236	207.788693532	0.05
2	4238	207.834768878147	0.05
2	4240	207.934768878147	0.05
2	4240	207.968315021	0.05
2	4242	208.034768878147	0.05
2	4243	208.118192274	0.05
2	4244	208.134768878147	0.05
2	4246	208.234768878147	0.05
2	4246	208.288923796	0.05
2	4248	208.334768878147	0.05
2	4250	208.434768878147	0.05
2	4250	208.460667637	0.05
2	4252	208.534768878147	0.05
2	4254	208.634768878147	0.05
2	4254	208.648907258	0.05
2	4256	208.734768878147	0.05
2	4257	208.802996707	0.05
2	4258	208.834768878147	0.05
2	4260	208.934768878147	0.05
2	4260	208.969755535	0.05
2	4262	209.034768878147	0.05
2	4263	209.119607041	0.05
2	4264	209.134768878147	0.05
2	4266	209.234768878147	0.05
2	4266	209.244775123	0.05
2	4268	209.334768878147	0.05
2	4269	209.406320738	0.05
2	4270	209.434768878147	0.05
2	4272	209.534768878147	0.0495
2	4272	209.534768878147	0.0495
2	4272	209.55478607	0.049580068767412
2	4274	209.634768878147	0.0499
2	4275	209.694662027	0.05
2	4276	209.734768878147	0.05
2	4278	209.834768878147	0.05
2	4278	209.847254566	0.05
2	4280	209.934768878147	0.05
2	4281	210.003669968	0.05
2	4282	210.034768878147	0.05
2	4284	210.134768878147	0.05
2	4284	210.160847589	0.05
2	4286	210.234768878147	0.05
2	4286	210.292208195	0.05
2	4288	210.334768878147	0.05
2	4290	210.434768878147	0.05
2	4290	210.45437246	0.05
2	4292	210.534768878147	0.0495
2	4292	210.534768878147	0.0495
2	4293	210.618188958	0.049833680319412
2	4294	210.634768878147	0.0499
2	4296	210.734768878147	0.05
2	4296	210.78742976	0.05
2	4298	210.834768878147	0.05
2	4300	210.934768878147	0.05
2	4300	210.970073801	0.05
2	4302	211.034768878147	0.05
2	4303	211.125388198	0.05
2	4304	211.134768878147	0.05
2	4306	211.234768878147	0.05
2	4306	211.271331107	0.05
2	4308	211.334768878147	0.05
2	4309	211.424010962	0.05
2	4310	211.434768878147	0.05
2	4312	211.534768878147	0.05
2	4312	211.581089987	0.05
2	4314	211.634768878147	0.05
2	4315	211.733668054	0.05
2	4316	211.734768878147	0.05
2	4318	211.834768878147	0.05
2	4318	211.887124897	0.05
2	4320	211.934768878147	0.05
2	4321	212.022784129	0.05
2	4322	212.034768878147	0.05
2	4324	212.134768878147	0.05
2	4324	212.172252467	0.05
2	4326	212.234768878147	0.05
2	4327	212.312001153	0.05
2	4328	212.334768878147	0.05
2	4330	212.434768878147	0.05
2	4330	212.439998313	0.05
2	4332	212.534768878147	0.05
2	4334	212.634768878147	0.0495
2	4334	212.634768878147	0.0495
2	4335	212.721386066	0.049846468751412
2	4336	212.734768878147	0.0499
2	4338	212.834768878147	0.05
2	4340	212.934768878147	0.05
2	4340	212.953287843	0.05
2	4342	213.034768878147	0.05
2	4343	213.125900452	0.05
2	4344	213.134768878147	0.05
2	4346	213.234768878147	0.05
2	4347	213.301065135	0.05
2	4348	213.334768878147	0.05
2	4350	213.434768878147	0.05
2	4351	213.493487803	0.05
2	4352	213.534768878147	0.05
2	4354	213.634768878147	0.05
2	4354	213.678566033	0.05
2	4356	213.734768878147	0.0495
2	4356	213.734768878147	0.0495
2	4358	213.834768878147	0.0499
2	4358	213.87710776	0.05
2	4360	213.934768878147	0.05
2	4362	214.034768878147	0.05
2	4362	214.040697304	0.05
2	4364	214.134768878147	0.05
2	4364	214.188061215	0.05
2	4366	214.234768878147	0.05
2	4368	214.334768878147	0.05
2	4368	214.358400269	0.05
2	4370	214.434768878147	0.05
2	4371	214.521552507	0.05
2	4372	214.534768878147	0.05
2	4374	214.634768878147	0.05
2	4375	214.727362469	0.05
2	4376	214.734768878147	0.05
2	4380	214.834768878147	0.05
2	4381	214.912200125	0.05
2	4383	214.934768878147	0.05
2	4385	215.034768878147	0.05
2	4385	215.044178197	0.05
2	4388	215.134768878147	0.05
2	4388	215.140021886	0.05
2	4391	215.234768878147	0.05
2	4392	215.299083459	0.05
2	4394	215.334768878147	0.05
2	4397	215.434768878147	0.05
2	4397	215.471668204	0.05
2	4399	215.534768878147	0.05
2	4400	215.556932214	0.05
2	4402	215.634768878147	0.05
2	4402	215.646669487	0.05
2	4405	215.734768878147	0.05
2	4407	215.802787354	0.05
2	4408	215.834768878147	0.05
2	4410	215.933881266	0.05
2	4411	215.934768878147	0.05
2	4412	216.030959523	0.05
2	4413	216.034768878147	0.05
2	4416	216.134768878147	0.05
2	4417	216.183390275	0.05
2	4419	216.234768878147	0.05
2	4421	216.309556624	0.05
2	4422	216.334768878147	0.0495
2	4422	216.334768878147	0.0495
2	4424	216.434768878147	0.0499
2	4424	216.478786837	0.05
2	4426	216.534768878147	0.05
2	4427	216.620202903	0.05
2	4428	216.634768878147	0.05
2	4429	216.635377748378	0.05
2	4431	216.734768878147	0.05
2	4432	216.797341801	0.05
2	4433	216.834768878147	0.05
2	4435	216.934768878147	0.05
2	4435	216.976156532	0.05
2	4437	217.034768878147	0.05
2	4439	217.134768878147	0.05
2	4439	217.170134903	0.05
2	4441	217.234768878147	0.05
2	4442	217.313219284	0.05
2	4443	217.334768878147	0.05
2	4444	217.40678711	0.05
2	4445	217.434768878147	0.05
2	4447	217.534768878147	0.05
2	4447	217.557436189	0.05
2	4449	217.634768878147	0.05
2	4451	217.734768878147	0.05
2	4451	217.743850828	0.05
2	4453	217.834768878147	0.05
2	4455	217.934768878147	0.05
2	4455	217.94262013	0.05
2	4457	218.034768878147	0.05
2	4458	218.116623192	0.05
2	4459	218.134768878147	0.05
2	4461	218.234768878147	0.05
2	4462	218.304550946	0.05
2	4463	218.334768878147	0.05
2	4465	218.434768878147	0.05
2	4465	218.472504381	0.0495
2	4465	218.472504381	0.0495
2	4467	218.534768878147	0.0495
2	4468	218.610574276	0.0495
2	4469	218.634768878147	0.0495
2	4471	218.734768878147	0.0495
2	4471	218.780455042	0.0495
2	4473	218.834768878147	0.0495
2	4475	218.934768878147	0.0495
2	4475	218.936597414	0.0495
2	4477	219.034768878147	0.0495
2	4477	219.088654713	0.0495
2	4479	219.134768878147	0.0495
2	4481	219.234768878147	0.0495
2	4481	219.27719314	0.0495
2	4483	219.334768878147	0.0495
2	4484	219.423579021	0.0495
2	4485	219.434768878147	0.0495
2	4487	219.534768878147	0.0495
2	4487	219.561253301	0.0495
2	4489	219.634768878147	0.0495
2	4490	219.719786298	0.0495
2	4491	219.734768878147	0.0495
2	4493	219.834768878147	0.0495
2	4493	219.88593234	0.0495
2	4495	219.934768878147	0.0495
2	4495	219.979417141	0.0495
2	4497	220.034768878147	0.0495
2	4499	220.134768878147	0.0495
2	4499	220.18744792	0.0495
2	4501	220.234768878147	0.0495
2	4503	220.334768878147	0.0495
2	4503	220.37295797	0.0495
2	4505	220.434768878147	0.0495
2	4507	220.534768878147	0.0495
2	4507	220.591852983	0.049005
2	4507	220.591852983	0.049005
2	4509	220.634768878147	0.049005
2	4511	220.734768878147	0.049005
2	4511	220.76844334	0.049005
2	4513	220.834768878147	0.049005
2	4515	220.934768878147	0.049005
2	4515	220.97260772	0.049005
2	4517	221.034768878147	0.049005
2	4519	221.134768878147	0.049005
2	4519	221.174932951	0.049005
2	4521	221.234768878147	0.049005
2	4522	221.314150992	0.049005
2	4523	221.334768878147	0.049005
2	4525	221.434768878147	0.049005
2	4525	221.48412963	0.049005
2	4527	221.534768878147	0.049005
2	4529	221.634768878147	0.049005
2	4529	221.657047967	0.04851495
2	4529	221.657047967	0.04851495
2	4531	221.734768878147	0.04851495
2	4532	221.810952001	0.04851495
2	4533	221.834768878147	0.04851495
2	4535	221.934768878147	0.04851495
2	4535	221.980420284	0.04851495
2	4537	222.034768878147	0.04851495
2	4537	222.076780854	0.04851495
3	0	0	0.004
3	942	46.974101355068	0
3	1191	58.820640829941	0.004
3	2460	122.048926829132	0
3	2849	141.299572572488	0.004
3	3265	161.070779004553	0
3	3878	190.641701027487	0.004
3	4429	216.635377748378	0
4	0	0	0.004
4	461	23.08057828677	0
4	940	46.908641743422	0.004
4	1544	76.443776708205	0
4	1571	77.753836678306	0.004
4	1594	78.842602710973	0
4	3229	159.827555700161	0.004
4	3788	186.217299175464	0
4	4377	214.770443572443	0.004
5	0	0	0.004
5	942	46.974101355068	0
5	1191	58.820640829941	0.004
5	2460	122.048926829132	0
5	2849	141.299572572488	0.004
5	3265	161.070779004553	0
5	3878	190.641701027487	0.004
5	4429	216.635377748378	0

