version 2
run Mysterio_ex2-0-20210906-22:33:13-7814
attr configname Mysterio_ex2
attr datetime 20210906-22:33:13
attr experiment Mysterio_ex2
attr inifile omnetpp.ini
attr iterationvars ""
attr iterationvarsf ""
attr measurement ""
attr network MysterioCommunication2
attr processid 7814
attr repetition 0
attr replication #0
attr resultdir results
attr runnumber 0
attr seedset 0
param *.host[*].mobility.numeroDrones 2
param *.numHosts 2
param *.host[*].osgModel "\"3d/drone.ive.100.scale.0,0,90.rot\""
param *.basestation.osgModel "\"3d/car.ive.50.scale.0,0,90.rot\""
param *.canvasVisualizer.energyStorageVisualizer.displayEnergyStorages true
param *.host[*].hasStatus true
param *.host[*].energyStorage.typename "\"SimpleEpEnergyStorage\""
param *.host[*].wlan[*].radio.energyConsumer.typename "\"StateBasedEpEnergyConsumer\""
param *.host[*].energyManagement.typename "\"SimpleEpEnergyManagement\""
param *.host[*].energyStorage.nominalCapacity 0.05J
param *.host[*].energyManagement.nodeShutdownCapacity "0.1 * energyStorage.nominalCapacity"
param *.host[*].energyManagement.nodeStartCapacity "0.5 * energyStorage.nominalCapacity"
param *.host[*].energyStorage.initialCapacity 0.05J
param *.host[*].energyGenerator.typename "\"AlternatingEpEnergyGenerator\""
param *.host[*].energyGenerator.powerGeneration 4mW
param *.host[*].energyGenerator.sleepInterval exponential(25s)
param *.host[*].energyGenerator.generationInterval exponential(25s)
param *.host[*].mobility.typename "\"UAVMobility\""
param *.host[*].mobility.changeInterval 1s
param *.host[*].mobility.initialMovementHeading "uniform(0deg, 360deg)"
param *.host[*].mobility.initialMovementElevation "uniform(-90deg, 90deg)"
param *.host[*].mobility.angleDelta uniform(-10deg,10deg)
param *.host[*].mobility.rotationAxisAngle uniform(-10deg,10deg)
param *.host[*].mobility.speed uniform(10mps,20mps)
param *.host[*].mobility.faceForward false
param *.host[*].mobility.initialX 220m
param *.host[*].mobility.initialY 220m
param *.host[*].mobility.initialZ 80m
param *.visualizer.osgVisualizer.typename "\"IntegratedOsgVisualizer\""
param *.visualizer.osgVisualizer.sceneVisualizer.clearColor "\"skyblue\""
param *.visualizer.osgVisualizer.sceneVisualizer.sceneImage "\"showcases/desert\""
param *.visualizer.osgVisualizer.sceneVisualizer.sceneImageSize 5000m
param *.visualizer.osgVisualizer.sceneVisualizer.axisLength 1000m
param *.visualizer.osgVisualizer.sceneVisualizer.sceneMinX -2000m
param *.visualizer.osgVisualizer.sceneVisualizer.sceneMinY -2000m
param *.visualizer.osgVisualizer.sceneVisualizer.sceneMinZ 0m
param *.visualizer.osgVisualizer.sceneVisualizer.sceneMaxX 3000m
param *.visualizer.osgVisualizer.sceneVisualizer.sceneMaxY 3000m
param *.visualizer.osgVisualizer.sceneVisualizer.sceneMaxZ 1000m
param *.visualizer.osgVisualizer.networkNodeVisualizer.displayModuleName false
param *.visualizer.*.mobilityVisualizer.displayMobility true
param *.visualizer.*.mobilityVisualizer.displayPositions true
param *.visualizer.*.mobilityVisualizer.displayOrientations false
param *.visualizer.*.mobilityVisualizer.displayVelocities true
param *.visualizer.*.mobilityVisualizer.displayMovementTrails true
param *.visualizer.*.mobilityVisualizer.animationSpeed 3
param **.constraintAreaMinX 0m
param **.constraintAreaMinY 0m
param **.constraintAreaMinZ 0m
param **.constraintAreaMaxX 1000m
param **.constraintAreaMaxY 1000m
param **.constraintAreaMaxZ 1000m
param **.networkConfiguratorModule "\"\""

vector 0 MysterioCommunication2.host[0].energyStorage residualEnergyCapacity:vector ETV
attr interpolationmode linear
attr source residualEnergyCapacityChanged
attr title "Residual energy capacity, vector"
vector 1 MysterioCommunication2.host[0].energyGenerator powerGeneration:vector ETV
attr interpolationmode sample-hold
attr source powerGenerationChanged
attr title "Power generation, vector"
vector 2 MysterioCommunication2.host[1].energyStorage residualEnergyCapacity:vector ETV
attr interpolationmode linear
attr source residualEnergyCapacityChanged
attr title "Residual energy capacity, vector"
vector 3 MysterioCommunication2.host[1].energyGenerator powerGeneration:vector ETV
attr interpolationmode sample-hold
attr source powerGenerationChanged
attr title "Power generation, vector"
vector 4 MysterioCommunication2.host[0].energyStorage powerGeneration:vector ETV
attr interpolationmode sample-hold
attr source powerGenerationChanged
attr title "Power generation, vector"
vector 5 MysterioCommunication2.host[1].energyStorage powerGeneration:vector ETV
attr interpolationmode sample-hold
attr source powerGenerationChanged
attr title "Power generation, vector"
0	0	0	0.05
0	0	0.1	0.05
0	2	0.157045747	0.05
0	3	0.2	0.05
0	5	0.3	0.05
0	7	0.4	0.05
0	9	0.5	0.05
0	11	0.6	0.05
0	12	0.608407078	0.05
0	13	0.7	0.05
0	15	0.8	0.05
0	17	0.9	0.05
0	19	1	0.05
0	21	1.1	0.05
0	22	1.163062183	0.05
0	23	1.2	0.05
0	25	1.3	0.05
0	27	1.4	0.05
0	28	1.433395558	0.05
0	29	1.5	0.05
0	31	1.6	0.05
0	33	1.7	0.05
0	34	1.723629166	0.05
0	35	1.8	0.05
0	37	1.9	0.05
0	38	1.973795074	0.05
0	39	2	0.05
0	41	2.1	0.05
0	43	2.2	0.05
0	45	2.3	0.05
0	46	2.387177215	0.05
0	47	2.4	0.05
0	49	2.5	0.05
0	50	2.576055322	0.05
0	51	2.6	0.05
0	53	2.7	0.05
0	54	2.793480553	0.05
0	55	2.8	0.05
0	57	2.9	0.05
0	59	3	0.05
0	61	3.1	0.05
0	63	3.2	0.05
0	64	3.210758275	0.05
0	65	3.3	0.05
0	67	3.4	0.05
0	68	3.418411513	0.05
0	69	3.5	0.05
0	71	3.6	0.05
0	73	3.7	0.05
0	75	3.8	0.05
0	76	3.871078648	0.05
0	77	3.9	0.05
0	79	4	0.05
0	81	4.1	0.05
0	82	4.171508089	0.05
0	83	4.2	0.05
0	85	4.3	0.05
0	87	4.4	0.05
0	88	4.448029306	0.05
0	89	4.5	0.05
0	91	4.6	0.05
0	93	4.7	0.05
0	94	4.733750875	0.05
0	95	4.8	0.05
0	97	4.9	0.05
0	99	5	0.05
0	101	5.1	0.05
0	102	5.188130881	0.05
0	103	5.2	0.05
0	105	5.3	0.05
0	107	5.4	0.05
0	109	5.5	0.05
0	110	5.596502788	0.05
0	111	5.6	0.05
0	113	5.7	0.05
0	115	5.8	0.05
0	117	5.9	0.05
0	119	6	0.05
0	120	6.087047185	0.05
0	121	6.1	0.05
0	123	6.2	0.05
0	125	6.3	0.05
0	126	6.372655999	0.05
0	127	6.4	0.05
0	129	6.5	0.05
0	131	6.6	0.05
0	132	6.662372278	0.05
0	133	6.7	0.05
0	135	6.8	0.05
0	137	6.9	0.05
0	139	7	0.05
0	141	7.1	0.05
0	142	7.164258235	0.05
0	143	7.2	0.05
0	145	7.3	0.05
0	147	7.4	0.05
0	149	7.5	0.05
0	150	7.560987379	0.05
0	151	7.6	0.05
0	153	7.7	0.05
0	155	7.8	0.05
0	157	7.9	0.05
0	159	8	0.05
0	161	8.1	0.05
0	162	8.115677788	0.05
0	163	8.2	0.05
0	165	8.3	0.05
0	167	8.4	0.05
0	169	8.5	0.05
0	170	8.535687718	0.05
0	171	8.6	0.05
0	173	8.7	0.05
0	175	8.8	0.05
0	177	8.9	0.05
0	179	9	0.05
0	180	9.044618209	0.05
0	181	9.1	0.05
0	183	9.2	0.05
0	185	9.3	0.05
0	187	9.4	0.05
0	188	9.477038299	0.05
0	189	9.5	0.05
0	191	9.6	0.05
0	193	9.7	0.05
0	195	9.8	0.05
0	197	9.9	0.05
0	198	9.927172846	0.05
0	199	10	0.05
0	201	10.1	0.05
0	203	10.2	0.05
0	205	10.3	0.05
0	207	10.4	0.05
0	208	10.488640933	0.05
0	209	10.5	0.05
0	211	10.6	0.05
0	213	10.7	0.05
0	215	10.8	0.05
0	217	10.9	0.05
0	219	11	0.05
0	220	11.04628453	0.05
0	221	11.1	0.05
0	223	11.2	0.05
0	225	11.3	0.05
0	227	11.4	0.05
0	229	11.5	0.05
0	231	11.6	0.05
0	232	11.60368156	0.05
0	233	11.7	0.05
0	235	11.8	0.05
0	237	11.9	0.05
0	239	12	0.05
0	240	12.064261789	0.05
0	241	12.1	0.05
0	243	12.2	0.05
0	245	12.3	0.05
0	246	12.333412954	0.05
0	247	12.4	0.05
0	249	12.5	0.05
0	250	12.598763644	0.05
0	251	12.6	0.05
0	253	12.7	0.05
0	255	12.8	0.05
0	257	12.9	0.05
0	259	13	0.05
0	260	13.062068323	0.05
0	261	13.1	0.05
0	263	13.2	0.05
0	265	13.3	0.05
0	266	13.317248158	0.05
0	267	13.4	0.05
0	269	13.5	0.05
0	271	13.6	0.05
0	273	13.7	0.05
0	275	13.8	0.05
0	276	13.8952024	0.05
0	277	13.9	0.05
0	279	14	0.05
0	281	14.1	0.05
0	283	14.2	0.05
0	285	14.3	0.05
0	286	14.347733662	0.05
0	287	14.4	0.05
0	289	14.5	0.05
0	291	14.6	0.05
0	293	14.7	0.05
0	294	14.726885107	0.05
0	295	14.8	0.05
0	297	14.9	0.05
0	299	15	0.05
0	301	15.1	0.05
0	303	15.2	0.05
0	304	15.211634755	0.05
0	305	15.3	0.05
0	307	15.4	0.05
0	308	15.499343596	0.05
0	309	15.5	0.05
0	311	15.6	0.05
0	313	15.7	0.05
0	315	15.8	0.05
0	317	15.9	0.05
0	318	15.953045029	0.05
0	319	16	0.05
0	321	16.1	0.05
0	323	16.2	0.05
0	324	16.236878521	0.05
0	325	16.3	0.05
0	327	16.4	0.05
0	329	16.5	0.05
0	331	16.6	0.05
0	332	16.688399752	0.05
0	333	16.7	0.05
0	335	16.8	0.05
0	337	16.9	0.05
0	339	17	0.05
0	341	17.1	0.05
0	342	17.109044626	0.05
0	343	17.2	0.05
0	345	17.3	0.05
0	347	17.4	0.05
0	349	17.5	0.05
0	350	17.558686651	0.05
0	351	17.6	0.05
0	353	17.7	0.05
0	355	17.8	0.05
0	356	17.823830155	0.05
0	357	17.9	0.05
0	359	18	0.05
0	361	18.1	0.05
0	362	18.190699597	0.05
0	363	18.2	0.05
0	365	18.3	0.05
0	367	18.4	0.05
0	368	18.446976673	0.05
0	369	18.5	0.05
0	371	18.6	0.05
0	373	18.7	0.05
0	375	18.8	0.05
0	377	18.9	0.05
0	378	18.931472089	0.05
0	379	19	0.05
0	381	19.1	0.05
0	383	19.2	0.05
0	385	19.3	0.05
0	386	19.371512173	0.05
0	387	19.4	0.05
0	389	19.5	0.05
0	391	19.6	0.05
0	393	19.7	0.05
0	395	19.8	0.05
0	396	19.806352297	0.05
0	397	19.9	0.05
0	399	20	0.05
0	401	20.1	0.05
0	403	20.2	0.05
0	404	20.264225887	0.05
0	405	20.3	0.05
0	407	20.4	0.05
0	409	20.5	0.05
0	411	20.6	0.05
0	413	20.7	0.05
0	414	20.736091582	0.05
0	415	20.8	0.05
0	417	20.9	0.05
0	419	21	0.05
0	421	21.1	0.05
0	422	21.161275024	0.05
0	423	21.2	0.05
0	425	21.3	0.05
0	427	21.4	0.05
0	429	21.5	0.05
0	431	21.6	0.05
0	432	21.604216756	0.05
0	433	21.7	0.05
0	435	21.8	0.05
0	437	21.9	0.05
0	438	21.901591921	0.05
0	439	22	0.05
0	441	22.1	0.05
0	443	22.2	0.05
0	445	22.3	0.05
0	446	22.34777758	0.05
0	447	22.4	0.05
0	449	22.5	0.05
0	451	22.6	0.05
0	452	22.617756913	0.05
0	453	22.7	0.05
0	455	22.8	0.05
0	457	22.9	0.05
0	458	22.917170395	0.05
0	459	23	0.05
0	461	23.08057828677	0.05
0	462	23.1	0.05
0	463	23.156668975	0.05
0	464	23.2	0.05
0	466	23.3	0.05
0	468	23.4	0.05
0	470	23.5	0.05
0	472	23.6	0.05
0	473	23.605563877	0.05
0	474	23.7	0.05
0	476	23.8	0.05
0	478	23.9	0.05
0	479	23.904605044	0.05
0	480	24	0.05
0	482	24.1	0.05
0	483	24.191806522	0.05
0	484	24.2	0.0495
0	484	24.2	0.0495
0	486	24.3	0.0495
0	488	24.4	0.0495
0	489	24.467386774	0.0495
0	490	24.5	0.0495
0	492	24.6	0.0495
0	494	24.7	0.0495
0	495	24.751553431	0.0495
0	496	24.8	0.0495
0	498	24.9	0.0495
0	500	25	0.0495
0	501	25.040485312	0.0495
0	502	25.1	0.0495
0	504	25.2	0.0495
0	506	25.3	0.0495
0	508	25.4	0.0495
0	510	25.427441968835	0.0495
0	510	25.446982378	0.04957816163666
0	511	25.5	0.04979023212466
0	513	25.552441968835	0.05
0	514	25.6	0.05
0	516	25.7	0.05
0	517	25.746205966	0.05
0	518	25.8	0.05
0	520	25.9	0.05
0	522	26	0.05
0	523	26.020935628	0.05
0	524	26.1	0.05
0	526	26.2	0.05
0	528	26.3	0.05
0	530	26.4	0.05
0	532	26.5	0.05
0	534	26.6	0.05
0	535	26.63283043	0.05
0	536	26.7	0.05
0	538	26.8	0.0495
0	538	26.8	0.0495
0	539	26.871258766	0.049785035064
0	540	26.9	0.0499
0	542	27	0.05
0	544	27.1	0.05
0	545	27.143817076	0.05
0	546	27.2	0.05
0	548	27.3	0.05
0	550	27.4	0.05
0	551	27.436011982	0.05
0	552	27.5	0.05
0	554	27.6	0.05
0	556	27.7	0.05
0	558	27.8	0.05
0	560	27.9	0.05
0	561	27.976125097	0.05
0	562	28	0.05
0	564	28.1	0.0495
0	564	28.1	0.0495
0	566	28.2	0.0499
0	567	28.253303395	0.05
0	568	28.3	0.05
0	570	28.4	0.05
0	572	28.5	0.05
0	574	28.6	0.05
0	575	28.697877622	0.05
0	576	28.7	0.05
0	578	28.8	0.05
0	580	28.9	0.05
0	581	28.916874391	0.05
0	582	29	0.05
0	584	29.1	0.05
0	586	29.2	0.05
0	588	29.3	0.05
0	589	29.350175851	0.05
0	590	29.4	0.0495
0	590	29.4	0.0495
0	592	29.5	0.0499
0	594	29.6	0.05
0	596	29.7	0.05
0	598	29.8	0.05
0	599	29.822091328	0.05
0	600	29.9	0.05
0	602	30	0.05
0	604	30.1	0.05
0	606	30.2	0.05
0	607	30.256615708	0.05
0	608	30.3	0.05
0	610	30.4	0.05
0	612	30.5	0.05
0	614	30.6	0.05
0	616	30.7	0.05
0	617	30.709405381	0.05
0	618	30.8	0.0495
0	618	30.8	0.0495
0	620	30.9	0.0499
0	622	31	0.05
0	624	31.1	0.05
0	625	31.180076809	0.05
0	626	31.2	0.05
0	628	31.3	0.05
0	630	31.4	0.05
0	632	31.5	0.05
0	634	31.6	0.05
0	635	31.657463329	0.05
0	636	31.7	0.05
0	638	31.8	0.05
0	640	31.9	0.05
0	642	32	0.05
0	644	32.1	0.05
0	645	32.142909316	0.05
0	646	32.2	0.0495
0	646	32.2	0.0495
0	648	32.3	0.0499
0	650	32.4	0.05
0	652	32.5	0.05
0	653	32.594073232	0.05
0	654	32.6	0.05
0	656	32.7	0.05
0	658	32.8	0.05
0	660	32.9	0.05
0	662	33	0.05
0	663	33.075788722	0.05
0	664	33.1	0.05
0	666	33.2	0.05
0	668	33.3	0.05
0	670	33.4	0.05
0	672	33.5	0.05
0	673	33.540728482	0.05
0	674	33.6	0.0495
0	674	33.6	0.0495
0	676	33.7	0.0499
0	678	33.8	0.05
0	680	33.9	0.05
0	682	34	0.05
0	683	34.027100263	0.05
0	684	34.1	0.05
0	686	34.2	0.05
0	688	34.3	0.05
0	690	34.4	0.05
0	691	34.439363905	0.05
0	692	34.5	0.05
0	694	34.6	0.05
0	696	34.7	0.05
0	697	34.735849588	0.05
0	698	34.8	0.05
0	700	34.9	0.05
0	702	35	0.0495
0	702	35	0.0495
0	704	35.1	0.0499
0	706	35.2	0.05
0	708	35.3	0.05
0	709	35.325079921	0.05
0	710	35.4	0.05
0	712	35.5	0.05
0	714	35.6	0.05
0	716	35.7	0.05
0	718	35.8	0.05
0	719	35.8756036	0.05
0	720	35.9	0.05
0	722	36	0.05
0	724	36.1	0.05
0	726	36.2	0.05
0	728	36.3	0.05
0	730	36.4	0.05
0	731	36.427489153	0.0495
0	731	36.427489153	0.0495
0	732	36.5	0.049790043388
0	734	36.6	0.05
0	736	36.7	0.05
0	738	36.8	0.05
0	740	36.9	0.05
0	741	36.914883226	0.05
0	742	37	0.05
0	744	37.1	0.05
0	746	37.2	0.05
0	748	37.3	0.05
0	749	37.352498581	0.05
0	750	37.4	0.05
0	752	37.5	0.05
0	754	37.6	0.05
0	755	37.631176735	0.05
0	756	37.7	0.05
0	758	37.8	0.0495
0	758	37.8	0.0495
0	760	37.9	0.0499
0	761	37.925673556	0.05
0	762	38	0.05
0	764	38.1	0.05
0	766	38.2	0.05
0	768	38.3	0.05
0	769	38.340918055	0.05
0	770	38.4	0.05
0	772	38.5	0.05
0	774	38.6	0.05
0	776	38.7	0.05
0	777	38.786311177	0.05
0	778	38.8	0.05
0	780	38.9	0.05
0	782	39	0.05
0	784	39.1	0.05
0	786	39.2	0.0495
0	786	39.2	0.0495
0	787	39.238606231	0.049654424924
0	788	39.3	0.0499
0	790	39.4	0.05
0	792	39.5	0.05
0	794	39.6	0.05
0	795	39.634830106	0.05
0	796	39.7	0.05
0	798	39.8	0.05
0	800	39.9	0.05
0	801	39.905554867	0.05
0	802	40	0.05
0	804	40.1	0.05
0	805	40.17153079	0.05
0	806	40.2	0.05
0	808	40.3	0.05
0	810	40.4	0.05
0	812	40.5	0.0495
0	812	40.5	0.0495
0	813	40.575888289	0.049803553156
0	814	40.6	0.0499
0	816	40.7	0.05
0	818	40.8	0.05
0	820	40.9	0.05
0	822	41	0.05
0	824	41.1	0.05
0	825	41.178251182	0.05
0	826	41.2	0.05
0	828	41.3	0.05
0	830	41.4	0.05
0	832	41.5	0.05
0	834	41.6	0.05
0	835	41.626700047	0.05
0	836	41.7	0.05
0	838	41.8	0.05
0	840	41.9	0.0495
0	840	41.9	0.0495
0	841	41.909148592	0.049536594368
0	842	42	0.0499
0	844	42.1	0.05
0	846	42.2	0.05
0	848	42.3	0.05
0	850	42.301216310165	0.05
0	850	42.367969534	0.05
0	851	42.4	0.05
0	853	42.5	0.05
0	855	42.6	0.05
0	857	42.7	0.05
0	859	42.8	0.05
0	860	42.824702164	0.05
0	861	42.9	0.05
0	863	43	0.05
0	865	43.1	0.05
0	866	43.103929909	0.05
0	867	43.2	0.05
0	869	43.3	0.05
0	871	43.4	0.05
0	873	43.5	0.05
0	874	43.559142643	0.05
0	875	43.6	0.05
0	877	43.7	0.05
0	879	43.8	0.05
0	880	43.848080113	0.05
0	881	43.9	0.05
0	883	44	0.05
0	885	44.1	0.05
0	887	44.2	0.05
0	889	44.3	0.05
0	890	44.32160014	0.05
0	891	44.4	0.05
0	893	44.5	0.05
0	895	44.6	0.05
0	897	44.683328381977	0.05
0	898	44.7	0.05
0	899	44.754883039	0.05
0	900	44.8	0.05
0	902	44.9	0.05
0	904	45	0.05
0	906	45.1	0.05
0	907	45.180664933	0.05
0	908	45.2	0.05
0	910	45.3	0.05
0	912	45.4	0.05
0	913	45.438096112	0.05
0	914	45.5	0.05
0	916	45.6	0.05
0	918	45.7	0.05
0	920	45.8	0.05
0	922	45.9	0.0495
0	922	45.9	0.0495
0	923	45.969450541	0.049777802164
0	924	46	0.0499
0	926	46.1	0.05
0	928	46.2	0.05
0	930	46.3	0.05
0	932	46.4	0.05
0	933	46.448907631	0.05
0	934	46.5	0.05
0	936	46.6	0.05
0	938	46.7	0.05
0	940	46.8	0.05
0	942	46.9	0.05
0	943	46.953387907	0.05
0	945	47	0.05
0	947	47.1	0.05
0	949	47.2	0.05
0	951	47.3	0.05
0	953	47.4	0.05
0	954	47.450248186	0.05
0	955	47.5	0.05
0	957	47.6	0.05
0	959	47.7	0.05
0	960	47.723670301	0.05
0	961	47.8	0.05
0	963	47.9	0.05
0	965	48	0.05
0	967	48.1	0.05
0	969	48.2	0.05
0	970	48.273346708	0.05
0	971	48.3	0.05
0	973	48.4	0.05
0	975	48.5	0.05
0	977	48.6	0.05
0	979	48.7	0.05
0	981	48.8	0.05
0	982	48.887526229	0.05
0	983	48.9	0.05
0	985	49	0.05
0	987	49.1	0.05
0	989	49.2	0.05
0	991	49.3	0.05
0	992	49.308639529	0.05
0	993	49.4	0.05
0	995	49.5	0.05
0	998	49.6	0.05
0	1001	49.7	0.05
0	1002	49.705141033	0.05
0	1004	49.8	0.05
0	1006	49.9	0.0495
0	1006	49.9	0.0495
0	1007	49.953743119	0.049714972476
0	1008	50	0.0499
0	1010	50.1	0.05
0	1012	50.2	0.05
0	1014	50.3	0.05
0	1015	50.389920391	0.05
0	1016	50.4	0.05
0	1018	50.5	0.05
0	1020	50.6	0.05
0	1021	50.679670408	0.05
0	1023	50.7	0.05
0	1025	50.8	0.05
0	1027	50.9	0.05
0	1029	51	0.05
0	1031	51.1	0.05
0	1031	51.156802345	0.05
0	1033	51.2	0.05
0	1035	51.3	0.05
0	1037	51.4	0.05
0	1039	51.5	0.05
0	1041	51.6	0.05
0	1041	51.661507657	0.05
0	1043	51.7	0.05
0	1045	51.8	0.05
0	1047	51.9	0.05
0	1049	52	0.05
0	1051	52.1	0.05
0	1053	52.2	0.05
0	1053	52.242000472	0.05
0	1055	52.3	0.05
0	1057	52.4	0.05
0	1059	52.5	0.05
0	1061	52.6	0.05
0	1063	52.7	0.05
0	1065	52.8	0.05
0	1067	52.9	0.05
0	1067	52.952734249	0.05
0	1069	53	0.05
0	1071	53.1	0.05
0	1073	53.2	0.05
0	1075	53.3	0.05
0	1076	53.386295656	0.05
0	1077	53.4	0.05
0	1079	53.5	0.05
0	1081	53.6	0.05
0	1081	53.639086414	0.05
0	1083	53.7	0.05
0	1085	53.8	0.05
0	1087	53.9	0.05
0	1089	54	0.05
0	1089	54.082892188	0.0495
0	1089	54.082892188	0.0495
0	1091	54.1	0.049568431248
0	1093	54.2	0.049968431248
0	1095	54.3	0.05
0	1097	54.4	0.05
0	1099	54.5	0.05
0	1099	54.546776452	0.05
0	1101	54.6	0.05
0	1103	54.7	0.05
0	1105	54.8	0.05
0	1107	54.9	0.05
0	1107	54.954541798	0.05
0	1109	55	0.05
0	1111	55.1	0.05
0	1113	55.2	0.05
0	1115	55.3	0.05
0	1115	55.3834714	0.05
0	1117	55.4	0.05
0	1119	55.5	0.05
0	1121	55.6	0.05
0	1123	55.7	0.05
0	1125	55.8	0.05
0	1125	55.829517754	0.05
0	1127	55.9	0.05
0	1129	56	0.05
0	1131	56.1	0.05
0	1133	56.2	0.05
0	1133	56.2537144	0.05
0	1135	56.3	0.05
0	1137	56.4	0.05
0	1139	56.5	0.05
0	1141	56.6	0.05
0	1143	56.7	0.05
0	1144	56.769634267061	0.05
0	1144	56.773885828	0.05
0	1146	56.869634267061	0.05
0	1148	56.969634267061	0.05
0	1150	57.069634267061	0.05
0	1152	57.169634267061	0.05
0	1154	57.269634267061	0.05
0	1155	57.319298233	0.05
0	1156	57.369634267061	0.05
0	1158	57.469634267061	0.05
0	1160	57.569634267061	0.05
0	1162	57.669634267061	0.05
0	1164	57.769634267061	0.05
0	1166	57.869634267061	0.05
0	1167	57.886369093	0.05
0	1168	57.969634267061	0.05
0	1170	58.069634267061	0.05
0	1172	58.169634267061	0.05
0	1174	58.269634267061	0.0495
0	1174	58.269634267061	0.0495
0	1175	58.287213565	0.049570317191756
0	1176	58.369634267061	0.0499
0	1178	58.469634267061	0.05
0	1180	58.569634267061	0.05
0	1182	58.669634267061	0.05
0	1184	58.769634267061	0.05
0	1185	58.839326293	0.05
0	1186	58.869634267061	0.05
0	1188	58.969634267061	0.05
0	1190	59.069634267061	0.05
0	1192	59.169634267061	0.05
0	1194	59.269634267061	0.05
0	1196	59.369634267061	0.05
0	1197	59.423973211	0.05
0	1198	59.469634267061	0.05
0	1200	59.569634267061	0.05
0	1202	59.669634267061	0.0495
0	1202	59.669634267061	0.0495
0	1202	59.683603429	0.049555876647756
0	1204	59.769634267061	0.0499
0	1206	59.869634267061	0.05
0	1208	59.969634267061	0.05
0	1210	60.069634267061	0.05
0	1211	60.160654759	0.05
0	1212	60.169634267061	0.05
0	1214	60.269634267061	0.05
0	1216	60.369634267061	0.05
0	1218	60.469634267061	0.05
0	1220	60.569634267061	0.05
0	1222	60.669634267061	0.05
0	1223	60.700243537	0.05
0	1224	60.769634267061	0.05
0	1226	60.869634267061	0.05
0	1228	60.969634267061	0.05
0	1230	61.069634267061	0.0495
0	1230	61.069634267061	0.0495
0	1232	61.169634267061	0.0499
0	1233	61.187078524	0.049969777027756
0	1234	61.269634267061	0.05
0	1236	61.369634267061	0.05
0	1238	61.469634267061	0.05
0	1240	61.569634267061	0.05
0	1241	61.653865609	0.05
0	1242	61.669634267061	0.05
0	1244	61.769634267061	0.05
0	1246	61.869634267061	0.05
0	1248	61.969634267061	0.05
0	1249	62.068962892	0.05
0	1250	62.069634267061	0.05
0	1252	62.169634267061	0.05
0	1254	62.269634267061	0.05
0	1255	62.356938808	0.05
0	1256	62.369634267061	0.0495
0	1256	62.369634267061	0.0495
0	1258	62.469634267061	0.0499
0	1260	62.569634267061	0.05
0	1261	62.632431133	0.05
0	1262	62.669634267061	0.05
0	1264	62.769634267061	0.05
0	1266	62.869634267061	0.05
0	1268	62.969634267061	0.05
0	1270	63.069634267061	0.05
0	1271	63.159929776	0.05
0	1272	63.169634267061	0.05
0	1274	63.269634267061	0.05
0	1276	63.369634267061	0.05
0	1278	63.469634267061	0.05
0	1280	63.569634267061	0.05
0	1282	63.669634267061	0.05
0	1283	63.761234854	0.05
0	1284	63.769634267061	0.0495
0	1284	63.769634267061	0.0495
0	1286	63.869634267061	0.0499
0	1288	63.969634267061	0.05
0	1290	64.069634267061	0.05
0	1291	64.167119857	0.05
0	1292	64.169634267061	0.05
0	1294	64.269634267061	0.05
0	1296	64.369634267061	0.05
0	1298	64.469634267061	0.05
0	1300	64.569634267061	0.05
0	1301	64.649358874	0.05
0	1302	64.669634267061	0.05
0	1304	64.769634267061	0.05
0	1306	64.869634267061	0.05
0	1308	64.969634267061	0.05
0	1310	65.069634267061	0.05
0	1311	65.127230737	0.05
0	1312	65.169634267061	0.0495
0	1312	65.169634267061	0.0495
0	1314	65.269634267061	0.0499
0	1316	65.369634267061	0.05
0	1318	65.469634267061	0.05
0	1319	65.56697929	0.05
0	1320	65.569634267061	0.05
0	1322	65.669634267061	0.05
0	1324	65.769634267061	0.05
0	1326	65.869634267061	0.05
0	1328	65.969634267061	0.05
0	1329	66.024656632	0.05
0	1330	66.069634267061	0.05
0	1332	66.169634267061	0.05
0	1334	66.269634267061	0.05
0	1335	66.294686827	0.05
0	1336	66.369634267061	0.05
0	1338	66.469634267061	0.05
0	1340	66.569634267061	0.0495
0	1340	66.569634267061	0.0495
0	1342	66.669634267061	0.0499
0	1343	66.695084305	0.05
0	1344	66.769634267061	0.05
0	1346	66.869634267061	0.05
0	1348	66.969634267061	0.05
0	1348	66.971611453	0.05
0	1350	67.069634267061	0.05
0	1352	67.169634267061	0.05
0	1354	67.269634267061	0.05
0	1356	67.369634267061	0.05
0	1357	67.429833322	0.05
0	1358	67.469634267061	0.05
0	1360	67.569634267061	0.05
0	1362	67.669634267061	0.05
0	1364	67.769634267061	0.05
0	1366	67.869634267061	0.05
0	1367	67.969249075	0.0495
0	1367	67.969249075	0.0495
0	1368	67.969634267061	0.049501540768244
0	1370	68.069634267061	0.049901540768244
0	1372	68.169634267061	0.05
0	1374	68.269634267061	0.05
0	1376	68.369634267061	0.05
0	1377	68.402475796	0.05
0	1378	68.469634267061	0.05
0	1380	68.569634267061	0.05
0	1382	68.669634267061	0.05
0	1384	68.769634267061	0.05
0	1385	68.80641514	0.05
0	1386	68.869634267061	0.05
0	1388	68.969634267061	0.05
0	1389	69.06438253	0.05
0	1390	69.069634267061	0.05
0	1392	69.169634267061	0.05
0	1394	69.269634267061	0.0495
0	1394	69.269634267061	0.0495
0	1396	69.369634267061	0.0499
0	1398	69.469634267061	0.05
0	1399	69.506465227	0.05
0	1400	69.569634267061	0.05
0	1402	69.669634267061	0.05
0	1404	69.769634267061	0.05
0	1406	69.869634267061	0.05
0	1408	69.969634267061	0.05
0	1410	70.069634267061	0.05
0	1411	70.117644775	0.05
0	1412	70.169634267061	0.05
0	1414	70.269634267061	0.05
0	1416	70.369634267061	0.05
0	1418	70.469634267061	0.05
0	1420	70.569634267061	0.05
0	1421	70.62064768	0.05
0	1422	70.669634267061	0.0495
0	1422	70.669634267061	0.0495
0	1424	70.769634267061	0.0499
0	1426	70.869634267061	0.05
0	1427	70.889493049	0.05
0	1428	70.969634267061	0.05
0	1430	71.069634267061	0.05
0	1431	71.151697177	0.05
0	1432	71.169634267061	0.05
0	1434	71.269634267061	0.05
0	1436	71.369634267061	0.05
0	1437	71.435807842	0.05
0	1438	71.469634267061	0.05
0	1440	71.569634267061	0.05
0	1442	71.669634267061	0.05
0	1444	71.769634267061	0.05
0	1445	71.859214537	0.05
0	1446	71.869634267061	0.05
0	1448	71.969634267061	0.0495
0	1448	71.969634267061	0.0495
0	1450	72.069634267061	0.0499
0	1452	72.169634267061	0.05
0	1454	72.269634267061	0.05
0	1455	72.365995276	0.05
0	1456	72.369634267061	0.05
0	1458	72.469634267061	0.05
0	1460	72.569634267061	0.05
0	1462	72.669634267061	0.05
0	1464	72.769634267061	0.05
0	1465	72.802340011	0.05
0	1466	72.869634267061	0.05
0	1468	72.969634267061	0.05
0	1470	73.069634267061	0.05
0	1470	73.075122442	0.05
0	1472	73.169634267061	0.05
0	1474	73.269634267061	0.05
0	1476	73.369634267061	0.0495
0	1476	73.369634267061	0.0495
0	1478	73.469634267061	0.0499
0	1479	73.52353102	0.05
0	1480	73.569634267061	0.05
0	1482	73.669634267061	0.05
0	1484	73.769634267061	0.05
0	1486	73.869634267061	0.05
0	1488	73.969634267061	0.05
0	1489	74.000387824	0.05
0	1490	74.069634267061	0.05
0	1492	74.169634267061	0.05
0	1494	74.269634267061	0.05
0	1496	74.369634267061	0.05
0	1497	74.453574709	0.05
0	1498	74.469634267061	0.05
0	1500	74.569634267061	0.05
0	1502	74.669634267061	0.05
0	1503	74.732576137	0.0495
0	1503	74.732576137	0.0495
0	1504	74.769634267061	0.049648232520244
0	1506	74.869634267061	0.05
0	1508	74.969634267061	0.05
0	1509	74.996910058	0.05
0	1510	75.069634267061	0.05
0	1512	75.169634267061	0.05
0	1514	75.269634267061	0.05
0	1516	75.369634267061	0.05
0	1517	75.452199046	0.05
0	1518	75.469634267061	0.05
0	1520	75.569634267061	0.05
0	1522	75.669634267061	0.05
0	1524	75.769634267061	0.05
0	1526	75.869634267061	0.05
0	1527	75.948252073	0.05
0	1528	75.969634267061	0.05
0	1530	76.069634267061	0.0495
0	1530	76.069634267061	0.0495
0	1532	76.169634267061	0.0499
0	1534	76.269634267061	0.05
0	1536	76.369634267061	0.05
0	1537	76.44185323	0.05
0	1538	76.469634267061	0.05
0	1540	76.569634267061	0.05
0	1542	76.669634267061	0.05
0	1544	76.769634267061	0.05
0	1546	76.869634267061	0.05
0	1547	76.886661559	0.05
0	1548	76.969634267061	0.05
0	1550	77.069634267061	0.05
0	1552	77.169634267061	0.05
0	1552	77.179197913	0.05
0	1554	77.269634267061	0.05
0	1556	77.369634267061	0.05
0	1557	77.41398952	0.0495
0	1557	77.41398952	0.0495
0	1558	77.469634267061	0.049722578988244
0	1560	77.569634267061	0.05
0	1561	77.649340222	0.05
0	1562	77.669634267061	0.05
0	1564	77.769634267061	0.05
0	1566	77.869634267061	0.05
0	1567	77.942742877	0.05
0	1568	77.969634267061	0.05
0	1570	78.069634267061	0.05
0	1572	78.169634267061	0.05
0	1574	78.269634267061	0.05
0	1576	78.369634267061	0.05
0	1577	78.389267764	0.05
0	1578	78.469634267061	0.05
0	1580	78.569634267061	0.05
0	1582	78.669634267061	0.05
0	1584	78.769634267061	0.0495
0	1584	78.769634267061	0.0495
0	1585	78.852579532	0.049831781059756
0	1586	78.869634267061	0.0499
0	1588	78.969634267061	0.05
0	1590	79.069634267061	0.05
0	1592	79.169634267061	0.05
0	1594	79.269634267061	0.05
0	1595	79.293419503	0.05
0	1596	79.369634267061	0.05
0	1598	79.469634267061	0.05
0	1600	79.569634267061	0.05
0	1602	79.669634267061	0.05
0	1603	79.745948269	0.05
0	1604	79.769634267061	0.05
0	1606	79.869634267061	0.05
0	1608	79.969634267061	0.05
0	1610	80.069634267061	0.05
0	1612	80.169634267061	0.0495
0	1612	80.169634267061	0.0495
0	1612	80.17497313	0.049521355451756
0	1614	80.269634267061	0.0499
0	1616	80.369634267061	0.05
0	1618	80.469634267061	0.05
0	1620	80.569634267061	0.05
0	1622	80.669634267061	0.05
0	1623	80.704683856	0.05
0	1624	80.769634267061	0.05
0	1626	80.869634267061	0.05
0	1628	80.969634267061	0.05
0	1630	81.069634267061	0.05
0	1632	81.169634267061	0.05
0	1632	81.17165455	0.05
0	1634	81.269634267061	0.05
0	1636	81.369634267061	0.05
0	1638	81.469634267061	0.05
0	1640	81.569634267061	0.0495
0	1640	81.569634267061	0.0495
0	1641	81.597453859	0.049611278367756
0	1642	81.669634267061	0.0499
0	1644	81.769634267061	0.05
0	1645	81.851585506	0.05
0	1646	81.869634267061	0.05
0	1648	81.969634267061	0.05
0	1650	82.069634267061	0.05
0	1651	82.119237154	0.05
0	1652	82.169634267061	0.05
0	1654	82.269634267061	0.05
0	1656	82.369634267061	0.05
0	1658	82.469634267061	0.05
0	1660	82.569634267061	0.05
0	1661	82.589430616	0.05
0	1662	82.669634267061	0.05
0	1664	82.769634267061	0.05
0	1666	82.869634267061	0.0495
0	1666	82.869634267061	0.0495
0	1668	82.969634267061	0.0499
0	1669	83.00193658	0.05
0	1670	83.069634267061	0.05
0	1672	83.169634267061	0.05
0	1674	83.269634267061	0.05
0	1676	83.369634267061	0.05
0	1677	83.429058637	0.05
0	1678	83.469634267061	0.05
0	1680	83.569634267061	0.05
0	1682	83.669634267061	0.05
0	1684	83.769634267061	0.05
0	1686	83.869634267061	0.05
0	1686	83.874536167	0.05
0	1688	83.969634267061	0.05
0	1690	84.069634267061	0.05
0	1692	84.169634267061	0.05
0	1694	84.269634267061	0.0495
0	1694	84.269634267061	0.0495
0	1695	84.325532653	0.049723593543756
0	1696	84.369634267061	0.0499
0	1698	84.469634267061	0.05
0	1700	84.569634267061	0.05
0	1702	84.669634267061	0.05
0	1704	84.769634267061	0.05
0	1704	84.772265401	0.05
0	1706	84.869634267061	0.05
0	1708	84.969634267061	0.05
0	1710	85.069634267061	0.05
0	1712	85.169634267061	0.05
0	1713	85.234905958	0.05
0	1714	85.269634267061	0.05
0	1716	85.369634267061	0.05
0	1718	85.469634267061	0.05
0	1720	85.569634267061	0.05
0	1722	85.669634267061	0.0495
0	1722	85.669634267061	0.0495
0	1722	85.684197331	0.049558252255756
0	1725	85.769634267061	0.0499
0	1727	85.869634267061	0.05
0	1729	85.969634267061	0.05
0	1731	86.069634267061	0.05
0	1732	86.15749969	0.05
0	1733	86.169634267061	0.05
0	1735	86.269634267061	0.05
0	1737	86.369634267061	0.05
0	1739	86.469634267061	0.05
0	1741	86.569634267061	0.05
0	1742	86.63059528	0.05
0	1743	86.669634267061	0.05
0	1745	86.769634267061	0.05
0	1747	86.869634267061	0.05
0	1749	86.969634267061	0.05
0	1751	87.069634267061	0.05
0	1752	87.137879401	0.05
0	1753	87.169634267061	0.05
0	1755	87.269634267061	0.05
0	1757	87.369634267061	0.05
0	1759	87.469634267061	0.05
0	1761	87.569634267061	0.05
0	1763	87.669634267061	0.05
0	1765	87.769634267061	0.05
0	1766	87.806522743	0.05
0	1767	87.869634267061	0.05
0	1769	87.969634267061	0.05
0	1771	88.069634267061	0.05
0	1773	88.169634267061	0.05
0	1775	88.269634267061	0.05
0	1777	88.369634267061	0.05
0	1778	88.425257251	0.05
0	1779	88.469634267061	0.05
0	1781	88.569634267061	0.05
0	1783	88.669634267061	0.05
0	1785	88.769634267061	0.05
0	1787	88.869634267061	0.05
0	1789	88.969634267061	0.05
0	1790	88.98981034	0.05
0	1791	89.069634267061	0.05
0	1793	89.169634267061	0.05
0	1795	89.269634267061	0.05
0	1797	89.369634267061	0.05
0	1799	89.469634267061	0.05
0	1800	89.51657188	0.05
0	1801	89.569634267061	0.05
0	1803	89.669634267061	0.05
0	1805	89.769634267061	0.05
0	1807	89.869634267061	0.05
0	1809	89.969634267061	0.05
0	1810	90.039062683	0.05
0	1811	90.069634267061	0.05
0	1813	90.169634267061	0.05
0	1815	90.269634267061	0.05
0	1816	90.297255469	0.05
0	1817	90.369634267061	0.05
0	1819	90.469634267061	0.05
0	1821	90.569634267061	0.05
0	1821	90.580917022	0.05
0	1823	90.669634267061	0.05
0	1825	90.769634267061	0.05
0	1827	90.869634267061	0.05
0	1829	90.969634267061	0.05
0	1830	91.058873164	0.05
0	1831	91.069634267061	0.05
0	1833	91.169634267061	0.05
0	1835	91.269634267061	0.05
0	1837	91.369634267061	0.05
0	1839	91.469634267061	0.05
0	1840	91.518500485	0.05
0	1841	91.569634267061	0.05
0	1843	91.669634267061	0.05
0	1845	91.769634267061	0.05
0	1847	91.869634267061	0.05
0	1848	91.940213236	0.05
0	1849	91.969634267061	0.05
0	1851	92.069634267061	0.05
0	1853	92.169634267061	0.05
0	1855	92.269634267061	0.05
0	1857	92.369634267061	0.05
0	1858	92.418225391	0.05
0	1859	92.469634267061	0.05
0	1861	92.569634267061	0.05
0	1863	92.669634267061	0.05
0	1864	92.690188606	0.05
0	1865	92.769634267061	0.05
0	1867	92.869634267061	0.05
0	1869	92.969634267061	0.05
0	1871	93.069634267061	0.05
0	1873	93.169634267061	0.05
0	1875	93.269634267061	0.05
0	1875	93.275958772	0.05
0	1877	93.369634267061	0.05
0	1879	93.469634267061	0.05
0	1881	93.569634267061	0.05
0	1883	93.669634267061	0.05
0	1885	93.769634267061	0.05
0	1885	93.775986706	0.05
0	1887	93.869634267061	0.05
0	1889	93.969634267061	0.05
0	1891	94.069634267061	0.05
0	1893	94.169634267061	0.05
0	1895	94.269634267061	0.05
0	1896	94.304754577	0.05
0	1897	94.369634267061	0.05
0	1899	94.469634267061	0.05
0	1901	94.569634267061	0.05
0	1903	94.669634267061	0.05
0	1904	94.74059608	0.05
0	1905	94.769634267061	0.05
0	1907	94.869634267061	0.05
0	1909	94.969634267061	0.05
0	1911	95.069634267061	0.05
0	1913	95.169634267061	0.05
0	1915	95.269634267061	0.05
0	1916	95.320891627	0.05
0	1917	95.369634267061	0.05
0	1919	95.469634267061	0.05
0	1921	95.569634267061	0.05
0	1923	95.669634267061	0.05
0	1924	95.758902301	0.05
0	1925	95.769634267061	0.05
0	1927	95.869634267061	0.05
0	1929	95.969634267061	0.05
0	1931	96.069634267061	0.05
0	1933	96.169634267061	0.05
0	1934	96.212157031	0.05
0	1935	96.269634267061	0.05
0	1937	96.369634267061	0.05
0	1939	96.469634267061	0.05
0	1941	96.569634267061	0.05
0	1942	96.636736408	0.05
0	1943	96.669634267061	0.05
0	1945	96.769634267061	0.05
0	1947	96.869634267061	0.05
0	1949	96.969634267061	0.05
0	1951	97.069634267061	0.05
0	1952	97.090390507	0.05
0	1953	97.169634267061	0.05
0	1955	97.269634267061	0.05
0	1957	97.369634267061	0.05
0	1959	97.469634267061	0.05
0	1960	97.502687146	0.05
0	1961	97.569634267061	0.05
0	1963	97.669634267061	0.05
0	1965	97.769634267061	0.05
0	1967	97.869634267061	0.05
0	1968	97.908586117	0.05
0	1969	97.969634267061	0.05
0	1971	98.069634267061	0.05
0	1973	98.169634267061	0.05
0	1974	98.187398758	0.05
0	1975	98.269634267061	0.05
0	1977	98.369634267061	0.05
0	1979	98.469634267061	0.05
0	1979	98.479320091	0.05
0	1981	98.569634267061	0.05
0	1983	98.669634267061	0.05
0	1985	98.769634267061	0.05
0	1987	98.869634267061	0.05
0	1989	98.969634267061	0.05
0	1989	98.979003538	0.05
0	1991	99.069634267061	0.05
0	1993	99.169634267061	0.05
0	1995	99.269634267061	0.05
0	1997	99.369634267061	0.05
0	1998	99.413500993	0.05
0	1999	99.469634267061	0.05
0	2001	99.569634267061	0.05
0	2003	99.669634267061	0.05
0	2005	99.769634267061	0.05
0	2006	99.830554084	0.05
0	2007	99.869634267061	0.05
0	2009	99.969634267061	0.05
0	2011	100.069634267061	0.05
0	2013	100.169634267061	0.05
0	2015	100.269634267061	0.05
0	2015	100.282203922	0.05
0	2017	100.369634267061	0.05
0	2019	100.469634267061	0.05
0	2020	100.561434709	0.05
0	2021	100.569634267061	0.05
0	2023	100.669634267061	0.05
0	2025	100.769634267061	0.05
0	2027	100.869634267061	0.05
0	2029	100.969634267061	0.05
0	2031	101.069634267061	0.05
0	2032	101.116381681	0.05
0	2033	101.169634267061	0.05
0	2035	101.269634267061	0.05
0	2037	101.369634267061	0.05
0	2039	101.469634267061	0.05
0	2041	101.569634267061	0.05
0	2043	101.669634267061	0.05
0	2044	101.707505476	0.05
0	2045	101.769634267061	0.05
0	2047	101.869634267061	0.05
0	2049	101.969634267061	0.05
0	2051	102.069634267061	0.05
0	2052	102.121379347	0.05
0	2053	102.169634267061	0.05
0	2055	102.269634267061	0.05
0	2057	102.369634267061	0.05
0	2059	102.469634267061	0.05
0	2061	102.569634267061	0.05
0	2062	102.597810334	0.05
0	2063	102.669634267061	0.05
0	2065	102.769634267061	0.05
0	2067	102.869634267061	0.05
0	2068	102.88838752	0.05
0	2069	102.969634267061	0.05
0	2071	103.069634267061	0.05
0	2073	103.169634267061	0.05
0	2075	103.269634267061	0.05
0	2077	103.369634267061	0.05
0	2077	103.381600585	0.05
0	2079	103.469634267061	0.05
0	2081	103.569634267061	0.05
0	2083	103.669634267061	0.05
0	2085	103.769634267061	0.05
0	2085	103.773917773	0.05
0	2087	103.869634267061	0.05
0	2089	103.969634267061	0.05
0	2091	104.069634267061	0.05
0	2093	104.169634267061	0.05
0	2095	104.269634267061	0.05
0	2096	104.300696641	0.05
0	2097	104.369634267061	0.05
0	2099	104.469634267061	0.05
0	2101	104.569634267061	0.05
0	2103	104.669634267061	0.05
0	2104	104.719121647	0.05
0	2105	104.769634267061	0.05
0	2107	104.869634267061	0.05
0	2109	104.969634267061	0.05
0	2111	105.069634267061	0.05
0	2113	105.15961323594	0.05
0	2114	105.169634267061	0.05
0	2116	105.269634267061	0.05
0	2117	105.322483954	0.05
0	2118	105.369634267061	0.05
0	2120	105.469634267061	0.05
0	2122	105.569634267061	0.05
0	2124	105.669634267061	0.05
0	2126	105.769634267061	0.05
0	2127	105.821574613	0.05
0	2128	105.869634267061	0.05
0	2130	105.969634267061	0.05
0	2132	106.069634267061	0.05
0	2134	106.169634267061	0.05
0	2136	106.269634267061	0.05
0	2136	106.281159268	0.05
0	2138	106.369634267061	0.05
0	2140	106.469634267061	0.0495
0	2140	106.469634267061	0.0495
0	2142	106.569634267061	0.0495
0	2144	106.669634267061	0.0495
0	2146	106.769634267061	0.0495
0	2146	106.777655581	0.0495
0	2148	106.869634267061	0.0495
0	2150	106.969634267061	0.0495
0	2152	107.069634267061	0.0495
0	2154	107.169634267061	0.0495
0	2155	107.243605501	0.0495
0	2156	107.269634267061	0.0495
0	2158	107.369634267061	0.0495
0	2160	107.469634267061	0.0495
0	2162	107.569634267061	0.0495
0	2163	107.666184124	0.0495
0	2164	107.669634267061	0.0495
0	2166	107.769634267061	0.0495
0	2168	107.869634267061	0.049005
0	2168	107.869634267061	0.049005
0	2170	107.969634267061	0.049005
0	2172	108.069634267061	0.049005
0	2172	108.081911803	0.049005
0	2174	108.169634267061	0.049005
0	2176	108.269634267061	0.049005
0	2178	108.369634267061	0.049005
0	2180	108.469634267061	0.049005
0	2181	108.503415844	0.049005
0	2182	108.569634267061	0.049005
0	2184	108.669634267061	0.049005
0	2186	108.769634267061	0.049005
0	2188	108.869634267061	0.049005
0	2189	108.936287605	0.049005
0	2190	108.969634267061	0.049005
0	2192	109.069634267061	0.049005
0	2194	109.169634267061	0.049005
0	2196	109.269634267061	0.04851495
0	2196	109.269634267061	0.04851495
0	2198	109.369634267061	0.04851495
0	2198	109.379643034	0.04851495
0	2200	109.469634267061	0.04851495
0	2202	109.569634267061	0.04851495
0	2204	109.669634267061	0.04851495
0	2204	109.674239029	0.04851495
0	2206	109.769634267061	0.04851495
0	2208	109.869634267061	0.04851495
0	2210	109.969634267061	0.04851495
0	2210	109.97332102	0.04851495
0	2212	110.069634267061	0.04851495
0	2214	110.169634267061	0.04851495
0	2216	110.269634267061	0.04851495
0	2218	110.369634267061	0.04851495
0	2219	110.449811659	0.04851495
0	2220	110.469634267061	0.04851495
0	2222	110.569634267061	0.0480298005
0	2222	110.569634267061	0.0480298005
0	2224	110.669634267061	0.0480298005
0	2226	110.769634267061	0.0480298005
0	2227	110.868355546	0.0480298005
0	2228	110.869634267061	0.0480298005
0	2230	110.969634267061	0.0480298005
0	2232	111.069634267061	0.0480298005
0	2234	111.169634267061	0.0480298005
0	2236	111.269634267061	0.0480298005
0	2237	111.361873978	0.0480298005
0	2238	111.369634267061	0.0480298005
0	2240	111.469634267061	0.0480298005
0	2242	111.569634267061	0.0480298005
0	2243	111.60612124	0.0480298005
0	2244	111.669634267061	0.0480298005
0	2246	111.769634267061	0.0480298005
0	2248	111.869634267061	0.0480298005
0	2250	111.969634267061	0.047549502495
0	2250	111.969634267061	0.047549502495
0	2251	112.044947029	0.047549502495
0	2252	112.069634267061	0.047549502495
0	2254	112.169634267061	0.047549502495
0	2256	112.269634267061	0.047549502495
0	2257	112.337423833	0.047549502495
0	2258	112.369634267061	0.047549502495
0	2260	112.469634267061	0.047549502495
0	2262	112.569634267061	0.047549502495
0	2263	112.614495574	0.047549502495
0	2264	112.669634267061	0.047549502495
0	2266	112.769634267061	0.047549502495
0	2268	112.869634267061	0.047549502495
0	2270	112.969634267061	0.047549502495
0	2272	113.069634267061	0.047549502495
0	2273	113.129285197	0.047549502495
0	2274	113.169634267061	0.047549502495
0	2277	113.269634267061	0.047549502495
0	2279	113.369634267061	0.047549502495
0	2281	113.469634267061	0.047549502495
0	2281	113.540313463	0.047549502495
0	2283	113.569634267061	0.047549502495
0	2285	113.669634267061	0.047549502495
0	2287	113.769634267061	0.047549502495
0	2289	113.869634267061	0.047549502495
0	2289	113.944566121	0.047549502495
0	2291	113.969634267061	0.047549502495
0	2293	114.069634267061	0.047549502495
0	2295	114.169634267061	0.047549502495
0	2295	114.234466714	0.047549502495
0	2297	114.269634267061	0.047549502495
0	2299	114.369634267061	0.047549502495
0	2301	114.469634267061	0.047549502495
0	2303	114.569634267061	0.047549502495
0	2305	114.669634267061	0.047549502495
0	2305	114.673094095	0.047549502495
0	2307	114.769634267061	0.047549502495
0	2309	114.869634267061	0.047549502495
0	2311	114.969634267061	0.047549502495
0	2311	114.973201663	0.047549502495
0	2313	115.069634267061	0.047549502495
0	2315	115.169634267061	0.047549502495
0	2317	115.269634267061	0.047549502495
0	2318	115.361941921	0.047549502495
0	2319	115.369634267061	0.047549502495
0	2321	115.469634267061	0.047549502495
0	2323	115.569634267061	0.047549502495
0	2323	115.629164551	0.047549502495
0	2325	115.669634267061	0.047549502495
0	2327	115.769634267061	0.047549502495
0	2329	115.869634267061	0.047549502495
0	2331	115.969634267061	0.047549502495
0	2332	116.041652012142	0.047549502495
0	2333	116.068885078	0.047549502495
0	2334	116.141652012142	0.047549502495
0	2336	116.241652012142	0.047549502495
0	2338	116.341652012142	0.047549502495
0	2340	116.441652012142	0.047549502495
0	2342	116.541652012142	0.047549502495
0	2344	116.641652012142	0.047549502495
0	2346	116.741652012142	0.047549502495
0	2347	116.747720305	0.047549502495
0	2348	116.841652012142	0.047549502495
0	2350	116.941652012142	0.047549502495
0	2352	117.041652012142	0.047549502495
0	2354	117.141652012142	0.047549502495
0	2355	117.226752895	0.047549502495
0	2356	117.241652012142	0.047549502495
0	2358	117.341652012142	0.04707400747005
0	2358	117.341652012142	0.04707400747005
0	2360	117.441652012142	0.04707400747005
0	2362	117.541652012142	0.04707400747005
0	2364	117.641652012142	0.04707400747005
0	2366	117.741652012142	0.04707400747005
0	2367	117.749142445	0.04707400747005
0	2368	117.841652012142	0.04707400747005
0	2370	117.941652012142	0.04707400747005
0	2372	118.041652012142	0.04707400747005
0	2374	118.141652012142	0.04707400747005
0	2375	118.194362257	0.04707400747005
0	2376	118.241652012142	0.04707400747005
0	2378	118.341652012142	0.04707400747005
0	2380	118.441652012142	0.04707400747005
0	2382	118.541652012142	0.04707400747005
0	2383	118.6372081	0.04707400747005
0	2384	118.641652012142	0.04707400747005
0	2386	118.741652012142	0.04660326739535
0	2386	118.741652012142	0.04660326739535
0	2388	118.841652012142	0.04660326739535
0	2389	118.88908267	0.04660326739535
0	2390	118.941652012142	0.04660326739535
0	2392	119.041652012142	0.04660326739535
0	2394	119.141652012142	0.04660326739535
0	2395	119.180876947	0.04660326739535
0	2396	119.241652012142	0.04660326739535
0	2398	119.341652012142	0.04660326739535
0	2400	119.441652012142	0.04660326739535
0	2402	119.541652012142	0.04660326739535
0	2403	119.594059651	0.04660326739535
0	2404	119.641652012142	0.04660326739535
0	2406	119.741652012142	0.04660326739535
0	2408	119.841652012142	0.04660326739535
0	2410	119.941652012142	0.04660326739535
0	2412	120.041652012142	0.04660326739535
0	2413	120.107827171	0.046137234721396
0	2413	120.107827171	0.046137234721396
0	2414	120.141652012142	0.046137234721396
0	2416	120.241652012142	0.046137234721396
0	2418	120.341652012142	0.046137234721396
0	2420	120.441652012142	0.046137234721396
0	2422	120.541652012142	0.046137234721396
0	2423	120.553933636	0.046137234721396
0	2424	120.641652012142	0.046137234721396
0	2426	120.741652012142	0.046137234721396
0	2428	120.841652012142	0.046137234721396
0	2430	120.941652012142	0.046137234721396
0	2431	121.012627138	0.046137234721396
0	2432	121.041652012142	0.046137234721396
0	2434	121.141652012142	0.046137234721396
0	2436	121.241652012142	0.046137234721396
0	2438	121.310112314348	0.046137234721396
0	2440	121.410112314348	0.046137234721396
0	2441	121.473590593	0.045675862374182
0	2441	121.473590593	0.045675862374182
0	2442	121.510112314348	0.045675862374182
0	2444	121.610112314348	0.045675862374182
0	2446	121.710112314348	0.045675862374182
0	2448	121.810112314348	0.045675862374182
0	2450	121.910112314348	0.045675862374182
0	2450	121.939626016	0.045675862374182
0	2452	122.010112314348	0.045675862374182
0	2454	122.110112314348	0.045675862374182
0	2456	122.210112314348	0.045675862374182
0	2456	122.233562884	0.045675862374182
0	2458	122.310112314348	0.045675862374182
0	2460	122.410112314348	0.045675862374182
0	2462	122.510112314348	0.045675862374182
0	2464	122.610112314348	0.045675862374182
0	2466	122.710112314348	0.045675862374182
0	2468	122.810112314348	0.045675862374182
0	2468	122.837175094	0.045675862374182
0	2470	122.910112314348	0.045675862374182
0	2472	123.010112314348	0.045675862374182
0	2474	123.110112314348	0.045675862374182
0	2476	123.210112314348	0.045675862374182
0	2478	123.310112314348	0.045675862374182
0	2479	123.382498225	0.045675862374182
0	2480	123.410112314348	0.045675862374182
0	2482	123.510112314348	0.045675862374182
0	2484	123.610112314348	0.045675862374182
0	2486	123.710112314348	0.045675862374182
0	2488	123.810112314348	0.045675862374182
0	2490	123.910112314348	0.045675862374182
0	2490	123.914745679	0.045675862374182
0	2492	124.010112314348	0.045675862374182
0	2494	124.110112314348	0.045675862374182
0	2496	124.210112314348	0.045675862374182
0	2498	124.310112314348	0.04521910375044
0	2498	124.310112314348	0.04521910375044
0	2500	124.410112314348	0.04521910375044
0	2500	124.412975911	0.04521910375044
0	2502	124.510112314348	0.04521910375044
0	2504	124.610112314348	0.04521910375044
0	2506	124.710112314348	0.04521910375044
0	2508	124.810112314348	0.04521910375044
0	2509	124.883531596	0.04521910375044
0	2510	124.910112314348	0.04521910375044
0	2512	125.010112314348	0.04521910375044
0	2514	125.110112314348	0.04521910375044
0	2516	125.210112314348	0.04521910375044
0	2518	125.310112314348	0.04521910375044
0	2518	125.334508708	0.04521910375044
0	2520	125.410112314348	0.04521910375044
0	2522	125.510112314348	0.04521910375044
0	2524	125.610112314348	0.04521910375044
0	2526	125.710112314348	0.044766912712936
0	2526	125.710112314348	0.044766912712936
0	2528	125.810112314348	0.044766912712936
0	2528	125.812965208	0.044766912712936
0	2530	125.910112314348	0.044766912712936
0	2532	126.010112314348	0.044766912712936
0	2534	126.110112314348	0.044766912712936
0	2536	126.210112314348	0.044766912712936
0	2538	126.310112314348	0.044766912712936
0	2539	126.369796996	0.044766912712936
0	2540	126.410112314348	0.044766912712936
0	2542	126.510112314348	0.044766912712936
0	2544	126.610112314348	0.044766912712936
0	2546	126.710112314348	0.044766912712936
0	2548	126.810112314348	0.044766912712936
0	2549	126.864528745	0.044766912712936
0	2550	126.910112314348	0.044766912712936
0	2552	127.010112314348	0.044766912712936
0	2554	127.110112314348	0.044319243585806
0	2554	127.110112314348	0.044319243585806
0	2556	127.210112314348	0.044319243585806
0	2558	127.310112314348	0.044319243585806
0	2558	127.312982269	0.044319243585806
0	2560	127.410112314348	0.044319243585806
0	2562	127.510112314348	0.044319243585806
0	2564	127.610112314348	0.044319243585806
0	2566	127.710112314348	0.044319243585806
0	2567	127.752366724	0.044319243585806
0	2568	127.810112314348	0.044319243585806
0	2570	127.910112314348	0.044319243585806
0	2572	128.010112314348	0.044319243585806
0	2574	128.110112314348	0.044319243585806
0	2576	128.210112314348	0.044319243585806
0	2577	128.277099619	0.044319243585806
0	2578	128.310112314348	0.044319243585806
0	2580	128.410112314348	0.044319243585806
0	2582	128.510112314348	0.043876051149948
0	2582	128.510112314348	0.043876051149948
0	2584	128.610112314348	0.043876051149948
0	2586	128.710112314348	0.043876051149948
0	2586	128.717975782	0.043876051149948
0	2588	128.810112314348	0.043876051149948
0	2590	128.910112314348	0.043876051149948
0	2591	128.938282444194	0.043876051149948
0	2593	129.038282444194	0.043876051149948
0	2595	129.138282444194	0.043876051149948
0	2596	129.165319684	0.043876051149948
0	2597	129.238282444194	0.043876051149948
0	2599	129.338282444194	0.043876051149948
0	2601	129.438282444194	0.043876051149948
0	2603	129.538282444194	0.043876051149948
0	2605	129.638282444194	0.043876051149948
0	2606	129.656742103	0.043876051149948
0	2607	129.738282444194	0.043876051149948
0	2609	129.838282444194	0.043876051149948
0	2611	129.938282444194	0.043876051149948
0	2613	130.038282444194	0.043876051149948
0	2614	130.120345297	0.043876051149948
0	2615	130.138282444194	0.043876051149948
0	2617	130.238282444194	0.043876051149948
0	2619	130.338282444194	0.043876051149948
0	2620	130.408693	0.043876051149948
0	2621	130.438282444194	0.043876051149948
0	2623	130.538282444194	0.043876051149948
0	2625	130.638282444194	0.043876051149948
0	2627	130.738282444194	0.043876051149948
0	2628	130.796997646	0.043876051149948
0	2629	130.838282444194	0.043876051149948
0	2631	130.938282444194	0.043876051149948
0	2633	131.038282444194	0.043876051149948
0	2635	131.138282444194	0.043876051149948
0	2636	131.232250567	0.043876051149948
0	2637	131.238282444194	0.043876051149948
0	2639	131.338282444194	0.043876051149948
0	2641	131.438282444194	0.043876051149948
0	2643	131.538282444194	0.043876051149948
0	2644	131.602482658	0.043876051149948
0	2645	131.638282444194	0.043876051149948
0	2647	131.738282444194	0.043876051149948
0	2649	131.838282444194	0.043876051149948
0	2649	131.841665041	0.043876051149948
0	2651	131.938282444194	0.043876051149948
0	2653	132.038282444194	0.043876051149948
0	2655	132.138282444194	0.043876051149948
0	2657	132.238282444194	0.043876051149948
0	2658	132.270423838	0.043876051149948
0	2659	132.338282444194	0.043876051149948
0	2661	132.438282444194	0.043876051149948
0	2662	132.504382306	0.043876051149948
0	2663	132.538282444194	0.043876051149948
0	2665	132.565346292617	0.043876051149948
0	2666	132.59633350513	0.044
0	2667	132.638282444194	0.044167795756256
0	2669	132.72133350513	0.0445
0	2670	132.738282444194	0.044567795756256
0	2672	132.838282444194	0.044967795756256
0	2674	132.84633350513	0.045
0	2675	132.938282444194	0.045367795756256
0	2677	132.97133350513	0.0455
0	2678	133.038282444194	0.045767795756256
0	2680	133.09633350513	0.046
0	2681	133.138282444194	0.046167795756256
0	2682	133.154872432	0.04623415570748
0	2683	133.22133350513	0.0465
0	2684	133.238282444194	0.046567795756256
0	2686	133.338282444194	0.046967795756256
0	2688	133.34633350513	0.047
0	2689	133.438282444194	0.047367795756256
0	2691	133.47133350513	0.0475
0	2692	133.538282444194	0.047767795756256
0	2694	133.59633350513	0.04752
0	2694	133.59633350513	0.04752
0	2695	133.638282444194	0.047687795756256
0	2697	133.71633350513	0.048
0	2698	133.738282444194	0.048087795756256
0	2698	133.745034655	0.04811480459948
0	2700	133.838282444194	0.048487795756256
0	2701	133.84133350513	0.0485
0	2703	133.938282444194	0.048887795756256
0	2705	133.96633350513	0.049
0	2706	134.038282444194	0.049287795756256
0	2708	134.09133350513	0.0495
0	2709	134.138282444194	0.049687795756256
0	2711	134.21633350513	0.05
0	2712	134.238282444194	0.05
0	2714	134.338282444194	0.05
0	2715	134.422549582	0.05
0	2716	134.438282444194	0.05
0	2718	134.538282444194	0.05
0	2720	134.638282444194	0.05
0	2722	134.738282444194	0.05
0	2724	134.838282444194	0.0495
0	2724	134.838282444194	0.0495
0	2725	134.92767964	0.049857588783224
0	2726	134.938282444194	0.0499
0	2728	135.038282444194	0.05
0	2730	135.138282444194	0.05
0	2732	135.238282444194	0.05
0	2734	135.338282444194	0.05
0	2735	135.391799023	0.05
0	2736	135.438282444194	0.05
0	2738	135.538282444194	0.05
0	2740	135.638282444194	0.05
0	2742	135.738282444194	0.05
0	2744	135.838282444194	0.05
0	2745	135.912412162	0.05
0	2746	135.938282444194	0.05
0	2748	136.038282444194	0.05
0	2750	136.138282444194	0.05
0	2752	136.238282444194	0.0495
0	2752	136.238282444194	0.0495
0	2754	136.338282444194	0.0499
0	2756	136.438282444194	0.05
0	2757	136.482069016	0.05
0	2758	136.538282444194	0.05
0	2760	136.638282444194	0.05
0	2762	136.738282444194	0.05
0	2764	136.838282444194	0.05
0	2766	136.938282444194	0.05
0	2766	136.941989845	0.05
0	2768	137.038282444194	0.05
0	2770	137.138282444194	0.05
0	2772	137.151806835465	0.05
0	2774	137.251806835465	0.05
0	2776	137.351806835465	0.05
0	2776	137.377507216	0.05
0	2778	137.451806835465	0.05
0	2780	137.551806835465	0.0495
0	2780	137.551806835465	0.0495
0	2781	137.65106395	0.04989702845814
0	2782	137.651806835465	0.0499
0	2784	137.751806835465	0.05
0	2786	137.851806835465	0.05
0	2786	137.930513188	0.05
0	2788	137.951806835465	0.05
0	2790	138.051806835465	0.05
0	2792	138.151806835465	0.05
0	2794	138.251806835465	0.05
0	2796	138.351806835465	0.05
0	2798	138.451806835465	0.05
0	2798	138.474339697	0.05
0	2800	138.551806835465	0.05
0	2802	138.651806835465	0.05
0	2804	138.751806835465	0.05
0	2806	138.851806835465	0.05
0	2806	138.913806745	0.05
0	2808	138.951806835465	0.05
0	2810	139.051806835465	0.05
0	2812	139.151806835465	0.05
0	2814	139.251806835465	0.05
0	2816	139.351806835465	0.05
0	2816	139.427626366	0.05
0	2818	139.451806835465	0.05
0	2820	139.551806835465	0.05
0	2822	139.651806835465	0.05
0	2824	139.751806835465	0.05
0	2826	139.851806835465	0.05
0	2826	139.906890652	0.05
0	2828	139.951806835465	0.05
0	2830	140.051806835465	0.05
0	2832	140.151806835465	0.05
0	2834	140.251806835465	0.05
0	2834	140.317896751	0.05
0	2836	140.351806835465	0.05
0	2838	140.451806835465	0.05
0	2840	140.551806835465	0.05
0	2842	140.651806835465	0.05
0	2844	140.751806835465	0.05
0	2844	140.797837546	0.05
0	2846	140.851806835465	0.05
0	2848	140.951806835465	0.05
0	2850	141.051806835465	0.05
0	2852	141.151806835465	0.05
0	2852	141.233664028	0.05
0	2854	141.251806835465	0.05
0	2856	141.351806835465	0.05
0	2858	141.451806835465	0.05
0	2858	141.522169954	0.05
0	2860	141.551806835465	0.05
0	2862	141.651806835465	0.0495
0	2862	141.651806835465	0.0495
0	2864	141.751806835465	0.0499
0	2866	141.851806835465	0.05
0	2868	141.951806835465	0.05
0	2868	142.007450524	0.05
0	2870	142.051806835465	0.05
0	2872	142.151806835465	0.05
0	2874	142.251806835465	0.05
0	2876	142.351806835465	0.05
0	2876	142.444972729	0.05
0	2878	142.451806835465	0.05
0	2880	142.551806835465	0.05
0	2882	142.651806835465	0.05
0	2884	142.751806835465	0.05
0	2885	142.84913872	0.05
0	2886	142.851806835465	0.05
0	2888	142.951806835465	0.05
0	2890	143.051806835465	0.0495
0	2890	143.051806835465	0.0495
0	2890	143.135049088	0.04983296901014
0	2892	143.151806835465	0.0499
0	2894	143.251806835465	0.05
0	2896	143.351806835465	0.05
0	2898	143.451806835465	0.05
0	2900	143.551806835465	0.05
0	2900	143.605586863	0.05
0	2902	143.651806835465	0.05
0	2904	143.751806835465	0.05
0	2906	143.851806835465	0.05
0	2908	143.951806835465	0.05
0	2910	144.051806835465	0.05
0	2910	144.137085742	0.05
0	2912	144.151806835465	0.05
0	2914	144.251806835465	0.05
0	2916	144.351806835465	0.05
0	2918	144.451806835465	0.0495
0	2918	144.451806835465	0.0495
0	2920	144.551806835465	0.0499
0	2920	144.58552135	0.05
0	2922	144.651806835465	0.05
0	2924	144.751806835465	0.05
0	2926	144.851806835465	0.05
0	2928	144.951806835465	0.05
0	2928	145.021927303	0.05
0	2930	145.051806835465	0.05
0	2932	145.151806835465	0.05
0	2934	145.251806835465	0.05
0	2936	145.351806835465	0.05
0	2938	145.451806835465	0.05
0	2938	145.510993441	0.05
0	2940	145.551806835465	0.05
0	2942	145.651806835465	0.05
0	2944	145.751806835465	0.05
0	2946	145.851806835465	0.0495
0	2946	145.851806835465	0.0495
0	2946	145.936919548	0.04984045085014
0	2948	145.951806835465	0.0499
0	2950	146.051806835465	0.05
0	2952	146.151806835465	0.05
0	2954	146.251806835465	0.05
0	2955	146.28182876859	0.05
0	2956	146.291551795496	0.05
0	2958	146.391551795496	0.05
0	2959	146.47405498	0.05
0	2960	146.491551795496	0.05
0	2962	146.591551795496	0.05
0	2964	146.691551795496	0.05
0	2966	146.791551795496	0.05
0	2968	146.891551795496	0.05
0	2969	146.961435553	0.05
0	2970	146.991551795496	0.05
0	2972	147.091551795496	0.05
0	2974	147.191551795496	0.0495
0	2974	147.191551795496	0.0495
0	2976	147.291551795496	0.0495
0	2978	147.391551795496	0.0495
0	2978	147.443754418	0.0495
0	2980	147.491551795496	0.0495
0	2982	147.591551795496	0.0495
0	2984	147.691551795496	0.0495
0	2986	147.791551795496	0.0495
0	2988	147.891551795496	0.0495
0	2989	147.976168933	0.0495
0	2990	147.991551795496	0.0495
0	2992	148.091551795496	0.0495
0	2994	148.191551795496	0.0495
0	2996	148.291551795496	0.0495
0	2998	148.391551795496	0.0495
0	2998	148.399932325	0.0495
0	3000	148.491551795496	0.0495
0	3002	148.591551795496	0.049005
0	3002	148.591551795496	0.049005
0	3004	148.691551795496	0.049005
0	3006	148.791551795496	0.049005
0	3007	148.864819207	0.049005
0	3008	148.891551795496	0.049005
0	3010	148.991551795496	0.049005
0	3012	149.091551795496	0.049005
0	3014	149.191551795496	0.049005
0	3016	149.291551795496	0.049005
0	3017	149.35635628	0.049005
0	3018	149.391551795496	0.049005
0	3020	149.491551795496	0.049005
0	3022	149.591551795496	0.049005
0	3024	149.691551795496	0.049005
0	3026	149.791551795496	0.049005
0	3028	149.891551795496	0.049005
0	3030	149.991551795496	0.049005
0	3030	149.99540083	0.049005
0	3032	150.091551795496	0.049005
0	3034	150.191551795496	0.049005
0	3036	150.291551795496	0.049005
0	3038	150.391551795496	0.049005
0	3039	150.472411015	0.049005
0	3040	150.491551795496	0.049005
0	3042	150.591551795496	0.049005
0	3044	150.691551795496	0.049005
0	3044	150.743461372	0.049005
0	3046	150.791551795496	0.049005
0	3048	150.891551795496	0.049005
0	3050	150.991551795496	0.049005
0	3052	151.080255368641	0.049005
0	3055	151.180255368641	0.049005
0	3055	151.217887084	0.049005
0	3057	151.280255368641	0.049005
0	3059	151.380255368641	0.04851495
0	3059	151.380255368641	0.04851495
0	3061	151.480255368641	0.04851495
0	3063	151.580255368641	0.04851495
0	3065	151.680255368641	0.04851495
0	3065	151.711573792	0.04851495
0	3067	151.780255368641	0.04851495
0	3069	151.880255368641	0.04851495
0	3071	151.980255368641	0.04851495
0	3073	152.080255368641	0.04851495
0	3075	152.180255368641	0.04851495
0	3075	152.193200713	0.04851495
0	3077	152.280255368641	0.04851495
0	3079	152.380255368641	0.04851495
0	3081	152.480255368641	0.04851495
0	3083	152.580255368641	0.04851495
0	3085	152.680255368641	0.04851495
0	3085	152.702035567	0.04851495
0	3087	152.780255368641	0.0480298005
0	3087	152.780255368641	0.0480298005
0	3089	152.880255368641	0.0480298005
0	3091	152.980255368641	0.0480298005
0	3093	153.080255368641	0.0480298005
0	3093	153.117597313	0.0480298005
0	3095	153.180255368641	0.0480298005
0	3097	153.280255368641	0.0480298005
0	3099	153.380255368641	0.0480298005
0	3101	153.480255368641	0.0480298005
0	3103	153.580255368641	0.0480298005
0	3103	153.604251091	0.0480298005
0	3105	153.680255368641	0.0480298005
0	3107	153.780255368641	0.0480298005
0	3107	153.844250674	0.0480298005
0	3109	153.880255368641	0.0480298005
0	3111	153.980255368641	0.0480298005
0	3113	154.080255368641	0.0480298005
0	3115	154.180255368641	0.047549502495
0	3115	154.180255368641	0.047549502495
0	3117	154.280255368641	0.047549502495
0	3117	154.301124793	0.047549502495
0	3119	154.380255368641	0.047549502495
0	3121	154.480255368641	0.047549502495
0	3123	154.580255368641	0.047549502495
0	3125	154.680255368641	0.047549502495
0	3127	154.780255368641	0.047549502495
0	3127	154.819956115	0.047549502495
0	3129	154.880255368641	0.047549502495
0	3131	154.980255368641	0.047549502495
0	3133	155.080255368641	0.047549502495
0	3135	155.180255368641	0.047549502495
0	3137	155.280255368641	0.047549502495
0	3138	155.348414008	0.047549502495
0	3139	155.380255368641	0.047549502495
0	3141	155.480255368641	0.047549502495
0	3143	155.580255368641	0.04707400747005
0	3143	155.580255368641	0.04707400747005
0	3145	155.680255368641	0.04707400747005
0	3147	155.780255368641	0.04707400747005
0	3147	155.837067628	0.04707400747005
0	3149	155.880255368641	0.04707400747005
0	3151	155.980255368641	0.04707400747005
0	3153	156.080255368641	0.04707400747005
0	3155	156.180255368641	0.04707400747005
0	3156	156.276816001	0.04707400747005
0	3157	156.280255368641	0.04707400747005
0	3159	156.380255368641	0.04707400747005
0	3161	156.480255368641	0.04707400747005
0	3163	156.580255368641	0.04707400747005
0	3165	156.680255368641	0.04707400747005
0	3165	156.744197227	0.04707400747005
0	3167	156.780255368641	0.04707400747005
0	3169	156.880255368641	0.04707400747005
0	3171	156.980255368641	0.04660326739535
0	3171	156.980255368641	0.04660326739535
0	3171	157.039819591	0.04660326739535
0	3173	157.080255368641	0.04660326739535
0	3175	157.180255368641	0.04660326739535
0	3177	157.280255368641	0.04660326739535
0	3179	157.380255368641	0.04660326739535
0	3181	157.480255368641	0.04660326739535
0	3181	157.482138286	0.04660326739535
0	3183	157.580255368641	0.04660326739535
0	3185	157.680255368641	0.04660326739535
0	3187	157.780255368641	0.04660326739535
0	3189	157.880255368641	0.04660326739535
0	3189	157.90946305	0.04660326739535
0	3191	157.980255368641	0.04660326739535
0	3193	158.080255368641	0.04660326739535
0	3195	158.180255368641	0.04660326739535
0	3195	158.183964898	0.04660326739535
0	3197	158.280255368641	0.046137234721396
0	3197	158.280255368641	0.046137234721396
0	3199	158.380255368641	0.046137234721396
0	3201	158.480255368641	0.046137234721396
0	3203	158.580255368641	0.046137234721396
0	3203	158.591817961	0.046137234721396
0	3205	158.680255368641	0.046137234721396
0	3207	158.780255368641	0.046137234721396
0	3209	158.880255368641	0.046137234721396
0	3209	158.886474079	0.046137234721396
0	3211	158.980255368641	0.046137234721396
0	3213	159.080255368641	0.046137234721396
0	3215	159.180255368641	0.046137234721396
0	3217	159.280255368641	0.046137234721396
0	3217	159.324874981	0.046137234721396
0	3219	159.380255368641	0.046137234721396
0	3221	159.480255368641	0.046137234721396
0	3223	159.580255368641	0.046137234721396
0	3225	159.680255368641	0.045675862374182
0	3225	159.680255368641	0.045675862374182
0	3226	159.765957298	0.045675862374182
0	3227	159.780255368641	0.045675862374182
0	3229	159.880255368641	0.045675862374182
0	3231	159.980255368641	0.045675862374182
0	3232	160.052937856	0.045675862374182
0	3233	160.080255368641	0.045675862374182
0	3235	160.180255368641	0.045675862374182
0	3237	160.280255368641	0.045675862374182
0	3237	160.304398366	0.045675862374182
0	3239	160.380255368641	0.045675862374182
0	3241	160.480255368641	0.045675862374182
0	3243	160.580255368641	0.045675862374182
0	3245	160.680255368641	0.045675862374182
0	3246	160.755179245	0.045675862374182
0	3247	160.780255368641	0.045675862374182
0	3249	160.880255368641	0.045675862374182
0	3251	160.980255368641	0.04521910375044
0	3251	160.980255368641	0.04521910375044
0	3253	161.080255368641	0.04521910375044
0	3255	161.180255368641	0.04521910375044
0	3256	161.248362526	0.04521910375044
0	3257	161.280255368641	0.04521910375044
0	3259	161.380255368641	0.04521910375044
0	3261	161.480255368641	0.04521910375044
0	3263	161.580255368641	0.04521910375044
0	3265	161.680255368641	0.04521910375044
0	3265	161.696887339	0.04521910375044
0	3267	161.780255368641	0.04521910375044
0	3269	161.880255368641	0.04521910375044
0	3271	161.980255368641	0.04521910375044
0	3273	162.080255368641	0.04521910375044
0	3273	162.114271747	0.04521910375044
0	3275	162.180255368641	0.04521910375044
0	3277	162.280255368641	0.04521910375044
0	3279	162.380255368641	0.044766912712936
0	3279	162.380255368641	0.044766912712936
0	3279	162.3877093	0.044766912712936
0	3281	162.480255368641	0.044766912712936
0	3283	162.580255368641	0.044766912712936
0	3285	162.680255368641	0.044766912712936
0	3287	162.780255368641	0.044766912712936
0	3287	162.842811061	0.044766912712936
0	3290	162.880255368641	0.044766912712936
0	3292	162.980255368641	0.044766912712936
0	3294	163.080255368641	0.044766912712936
0	3296	163.180255368641	0.044766912712936
0	3298	163.280255368641	0.044766912712936
0	3298	163.31750635	0.044766912712936
0	3300	163.380255368641	0.044766912712936
0	3302	163.480255368641	0.044766912712936
0	3305	163.580255368641	0.044766912712936
0	3305	163.597493731	0.044766912712936
0	3308	163.680255368641	0.044766912712936
0	3311	163.780255368641	0.044766912712936
0	3314	163.880255368641	0.044766912712936
0	3316	163.980255368641	0.044766912712936
0	3317	164.043565765	0.044766912712936
0	3319	164.080255368641	0.044766912712936
0	3322	164.180255368641	0.044766912712936
0	3325	164.280255368641	0.044766912712936
0	3328	164.380255368641	0.044766912712936
0	3330	164.480255368641	0.044766912712936
0	3331	164.489121604	0.044766912712936
0	3334	164.580255368641	0.044766912712936
0	3336	164.680255368641	0.044766912712936
0	3338	164.780255368641	0.044766912712936
0	3340	164.880255368641	0.044766912712936
0	3340	164.939494882	0.044766912712936
0	3342	164.980255368641	0.044766912712936
0	3344	165.080255368641	0.044766912712936
0	3346	165.180255368641	0.044766912712936
0	3348	165.280255368641	0.044766912712936
0	3350	165.380255368641	0.044766912712936
0	3350	165.47450914	0.044766912712936
0	3352	165.480255368641	0.044766912712936
0	3354	165.580255368641	0.044766912712936
0	3356	165.680255368641	0.044766912712936
0	3358	165.780255368641	0.044766912712936
0	3360	165.880255368641	0.044766912712936
0	3360	165.923522011	0.044766912712936
0	3362	165.980255368641	0.044766912712936
0	3364	166.080255368641	0.044766912712936
0	3366	166.180255368641	0.044766912712936
0	3366	166.194706426	0.044766912712936
0	3368	166.280255368641	0.044766912712936
0	3370	166.380255368641	0.044766912712936
0	3372	166.480255368641	0.044766912712936
0	3372	166.485645958	0.044766912712936
0	3374	166.580255368641	0.044766912712936
0	3376	166.680255368641	0.044766912712936
0	3378	166.780255368641	0.044766912712936
0	3378	166.785934777	0.044766912712936
0	3380	166.880255368641	0.044766912712936
0	3382	166.980255368641	0.044766912712936
0	3384	167.080255368641	0.044766912712936
0	3386	167.180255368641	0.044766912712936
0	3386	167.186128789	0.044766912712936
0	3388	167.280255368641	0.044766912712936
0	3390	167.380255368641	0.044766912712936
0	3392	167.480255368641	0.044766912712936
0	3394	167.580255368641	0.044766912712936
0	3394	167.597799112	0.044766912712936
0	3396	167.680255368641	0.044766912712936
0	3398	167.780255368641	0.044766912712936
0	3400	167.880255368641	0.044766912712936
0	3401	167.97742198	0.044766912712936
0	3402	167.980255368641	0.044766912712936
0	3404	168.080255368641	0.044766912712936
0	3406	168.180255368641	0.044766912712936
0	3406	168.225950476	0.044766912712936
0	3408	168.280255368641	0.044766912712936
0	3410	168.380255368641	0.044766912712936
0	3412	168.480255368641	0.044766912712936
0	3414	168.580255368641	0.044766912712936
0	3416	168.680255368641	0.044766912712936
0	3416	168.719456089	0.044319243585806
0	3416	168.719456089	0.044319243585806
0	3418	168.780255368641	0.044319243585806
0	3420	168.880255368641	0.044319243585806
0	3420	168.965297266	0.044319243585806
0	3422	168.980255368641	0.044319243585806
0	3424	169.080255368641	0.044319243585806
0	3426	169.180255368641	0.044319243585806
0	3428	169.280255368641	0.044319243585806
0	3430	169.380255368641	0.044319243585806
0	3430	169.458213001	0.044319243585806
0	3432	169.480255368641	0.044319243585806
0	3434	169.580255368641	0.044319243585806
0	3436	169.680255368641	0.044319243585806
0	3438	169.780255368641	0.044319243585806
0	3440	169.880255368641	0.044319243585806
0	3440	169.92445555	0.044319243585806
0	3442	169.980255368641	0.044319243585806
0	3444	170.080255368641	0.044319243585806
0	3446	170.180255368641	0.044319243585806
0	3446	170.215961746	0.044319243585806
0	3448	170.280255368641	0.044319243585806
0	3450	170.380255368641	0.044319243585806
0	3452	170.480255368641	0.044319243585806
0	3454	170.580255368641	0.044319243585806
0	3456	170.680255368641	0.044319243585806
0	3456	170.681159452	0.044319243585806
0	3458	170.780255368641	0.044319243585806
0	3460	170.880255368641	0.044319243585806
0	3460	170.963699005	0.044319243585806
0	3462	170.980255368641	0.044319243585806
0	3464	171.080255368641	0.044319243585806
0	3466	171.180255368641	0.044319243585806
0	3466	171.262049839	0.044319243585806
0	3468	171.280255368641	0.044319243585806
0	3470	171.380255368641	0.044319243585806
0	3472	171.480255368641	0.044319243585806
0	3474	171.580255368641	0.044319243585806
0	3476	171.680255368641	0.044319243585806
0	3476	171.725409838	0.044319243585806
0	3478	171.780255368641	0.044319243585806
0	3480	171.880255368641	0.044319243585806
0	3482	171.980255368641	0.044319243585806
0	3482	172.016082115	0.044319243585806
0	3484	172.080255368641	0.044319243585806
0	3486	172.180255368641	0.044319243585806
0	3486	172.255900843	0.044319243585806
0	3488	172.280255368641	0.044319243585806
0	3490	172.380255368641	0.044319243585806
0	3492	172.480255368641	0.044319243585806
0	3492	172.495250422	0.044319243585806
0	3494	172.580255368641	0.044319243585806
0	3496	172.680255368641	0.044319243585806
0	3498	172.780255368641	0.044319243585806
0	3500	172.880255368641	0.044319243585806
0	3500	172.943376229	0.044319243585806
0	3502	172.980255368641	0.044319243585806
0	3504	173.080255368641	0.044319243585806
0	3506	173.180255368641	0.044319243585806
0	3508	173.280255368641	0.044319243585806
0	3510	173.380255368641	0.044319243585806
0	3510	173.412724393	0.044319243585806
0	3512	173.480255368641	0.044319243585806
0	3514	173.580255368641	0.044319243585806
0	3516	173.680255368641	0.044319243585806
0	3518	173.780255368641	0.044319243585806
0	3519	173.87555713	0.044319243585806
0	3520	173.880255368641	0.044319243585806
0	3522	173.980255368641	0.044319243585806
0	3524	174.080255368641	0.044319243585806
0	3526	174.180255368641	0.044319243585806
0	3528	174.280255368641	0.044319243585806
0	3530	174.380255368641	0.044319243585806
0	3530	174.452698339	0.044319243585806
0	3532	174.480255368641	0.044319243585806
0	3534	174.580255368641	0.044319243585806
0	3536	174.680255368641	0.044319243585806
0	3538	174.780255368641	0.044319243585806
0	3540	174.880255368641	0.044319243585806
0	3540	174.931369252	0.044319243585806
0	3542	174.980255368641	0.044319243585806
0	3544	175.080255368641	0.044319243585806
0	3546	175.180255368641	0.044319243585806
0	3548	175.280255368641	0.044319243585806
0	3550	175.380255368641	0.044319243585806
0	3550	175.395491599	0.044319243585806
0	3552	175.480255368641	0.044319243585806
0	3554	175.580255368641	0.044319243585806
0	3556	175.680255368641	0.044319243585806
0	3558	175.780255368641	0.044319243585806
0	3558	175.840269466	0.044319243585806
0	3560	175.880255368641	0.044319243585806
0	3562	175.980255368641	0.044319243585806
0	3563	176.073947931274	0.044319243585806
0	3565	176.080255368641	0.044344473335274
0	3566	176.119137034822	0.0445
0	3568	176.180255368641	0.044744473335276
0	3569	176.244137034822	0.045
0	3569	176.269969228	0.045103328772712
0	3571	176.280255368641	0.045144473335276
0	3572	176.369137034822	0.0455
0	3574	176.380255368641	0.045544473335276
0	3576	176.480255368641	0.045944473335276
0	3577	176.494137034822	0.046
0	3579	176.580255368641	0.046344473335276
0	3580	176.619137034822	0.0465
0	3582	176.680255368641	0.046744473335276
0	3582	176.691975895	0.046791355440712
0	3583	176.744137034822	0.047
0	3585	176.780255368641	0.047144473335276
0	3586	176.869137034822	0.0475
0	3588	176.880255368641	0.047544473335276
0	3590	176.980255368641	0.047944473335276
0	3591	176.994137034822	0.048
0	3593	177.080255368641	0.048344473335276
0	3594	177.119137034822	0.0485
0	3596	177.180255368641	0.048744473335276
0	3596	177.233043424	0.048955625556712
0	3597	177.244137034822	0.049
0	3599	177.280255368641	0.049144473335276
0	3600	177.369137034822	0.0495
0	3602	177.380255368641	0.049544473335276
0	3604	177.480255368641	0.049944473335276
0	3605	177.494137034822	0.05
0	3607	177.580255368641	0.05
0	3608	177.676146208	0.05
0	3609	177.680255368641	0.0495
0	3609	177.680255368641	0.0495
0	3611	177.780255368641	0.0499
0	3613	177.880255368641	0.05
0	3615	177.980255368641	0.05
0	3617	178.080255368641	0.05
0	3617	178.110316429	0.05
0	3619	178.180255368641	0.05
0	3621	178.280255368641	0.05
0	3623	178.380255368641	0.05
0	3625	178.480255368641	0.05
0	3625	178.519143028	0.05
0	3627	178.580255368641	0.05
0	3629	178.680255368641	0.05
0	3631	178.780255368641	0.05
0	3633	178.880255368641	0.05
0	3633	178.910287855	0.05
0	3635	178.980255368641	0.05
0	3637	179.080255368641	0.0495
0	3637	179.080255368641	0.0495
0	3637	179.171354176	0.049864395229436
0	3639	179.180255368641	0.0499
0	3641	179.280255368641	0.05
0	3643	179.380255368641	0.05
0	3645	179.480255368641	0.05
0	3647	179.580255368641	0.05
0	3649	179.680255368641	0.05
0	3649	179.714341747	0.05
0	3651	179.780255368641	0.05
0	3653	179.880255368641	0.05
0	3655	179.980255368641	0.05
0	3657	180.080255368641	0.05
0	3659	180.180255368641	0.05
0	3659	180.186022084	0.05
0	3661	180.280255368641	0.05
0	3663	180.380255368641	0.05
0	3665	180.480255368641	0.0495
0	3665	180.480255368641	0.0495
0	3667	180.580255368641	0.0499
0	3667	180.648392467	0.05
0	3669	180.680255368641	0.05
0	3671	180.780255368641	0.05
0	3673	180.880255368641	0.05
0	3675	180.980255368641	0.05
0	3675	181.066004971	0.05
0	3677	181.080255368641	0.05
0	3679	181.180255368641	0.05
0	3681	181.280255368641	0.05
0	3683	181.380255368641	0.05
0	3685	181.480255368641	0.05
0	3685	181.542312877	0.05
0	3687	181.580255368641	0.05
0	3689	181.680255368641	0.05
0	3691	181.780255368641	0.05
0	3693	181.880255368641	0.0495
0	3693	181.880255368641	0.0495
0	3693	181.962091411	0.049827344169436
0	3695	181.980255368641	0.0499
0	3697	182.080255368641	0.05
0	3699	182.180255368641	0.05
0	3701	182.280255368641	0.05
0	3703	182.380255368641	0.05
0	3703	182.402658886	0.05
0	3705	182.480255368641	0.05
0	3707	182.580255368641	0.05
0	3709	182.680255368641	0.05
0	3711	182.780255368641	0.05
0	3713	182.880255368641	0.05
0	3713	182.88311947	0.05
0	3715	182.980255368641	0.05
0	3717	183.080255368641	0.05
0	3717	183.129377779	0.05
0	3719	183.180255368641	0.0495
0	3719	183.180255368641	0.0495
0	3721	183.280255368641	0.0499
0	3723	183.380255368641	0.05
0	3725	183.480255368641	0.05
0	3727	183.580255368641	0.05
0	3729	183.680255368641	0.05
0	3729	183.709201945	0.05
0	3731	183.780255368641	0.05
0	3733	183.880255368641	0.05
0	3735	183.980255368641	0.05
0	3737	184.080255368641	0.05
0	3739	184.180255368641	0.05
0	3739	184.229755153	0.05
0	3741	184.280255368641	0.05
0	3743	184.380255368641	0.05
0	3745	184.480255368641	0.05
0	3747	184.580255368641	0.05
0	3749	184.680255368641	0.0495
0	3749	184.680255368641	0.0495
0	3749	184.757446174	0.049808763221436
0	3751	184.780255368641	0.0499
0	3753	184.880255368641	0.05
0	3755	184.980255368641	0.05
0	3757	185.080255368641	0.05
0	3759	185.180255368641	0.05
0	3761	185.280255368641	0.05
0	3761	185.327113042	0.05
0	3763	185.380255368641	0.05
0	3765	185.480255368641	0.05
0	3767	185.580255368641	0.05
0	3769	185.680255368641	0.05
0	3769	185.771365156	0.05
0	3771	185.780255368641	0.05
0	3773	185.880255368641	0.05
0	3777	185.980255368641	0.0495
0	3777	185.980255368641	0.0495
0	3779	186.080255368641	0.0499
0	3781	186.180255368641	0.05
0	3783	186.280255368641	0.05
0	3785	186.380255368641	0.05
0	3785	186.446817976	0.05
0	3787	186.480255368641	0.05
0	3789	186.580255368641	0.05
0	3791	186.680255368641	0.05
0	3793	186.780255368641	0.05
0	3795	186.880255368641	0.05
0	3795	186.897342196	0.05
0	3797	186.980255368641	0.05
0	3799	187.080255368641	0.05
0	3801	187.180255368641	0.05
0	3803	187.280255368641	0.05
0	3803	187.334191	0.05
0	3805	187.380255368641	0.0495
0	3805	187.380255368641	0.0495
0	3807	187.480255368641	0.0499
0	3809	187.580255368641	0.05
0	3811	187.680255368641	0.05
0	3813	187.780255368641	0.05
0	3813	187.805392564	0.05
0	3815	187.880255368641	0.05
0	3817	187.980255368641	0.05
0	3819	188.080255368641	0.05
0	3821	188.180255368641	0.05
0	3823	188.280255368641	0.05
0	3823	188.291503009	0.05
0	3825	188.380255368641	0.05
0	3827	188.480255368641	0.05
0	3829	188.580255368641	0.05
0	3831	188.680255368641	0.05
0	3833	188.780255368641	0.05
0	3833	188.843434369	0.05
0	3835	188.880255368641	0.05
0	3837	188.980255368641	0.05
0	3839	189.080255368641	0.05
0	3841	189.180255368641	0.05
0	3843	189.280255368641	0.05
0	3845	189.380255368641	0.05
0	3845	189.40562917	0.05
0	3847	189.480255368641	0.05
0	3849	189.580255368641	0.05
0	3851	189.680255368641	0.05
0	3853	189.780255368641	0.05
0	3855	189.880255368641	0.05
0	3855	189.943517725	0.05
0	3857	189.980255368641	0.05
0	3859	190.080255368641	0.05
0	3861	190.180255368641	0.05
0	3861	190.240044724	0.05
0	3863	190.280255368641	0.05
0	3865	190.380255368641	0.05
0	3867	190.480255368641	0.05
0	3869	190.580255368641	0.05
0	3871	190.680255368641	0.05
0	3871	190.76937694	0.05
0	3873	190.780255368641	0.05
0	3875	190.880255368641	0.05
0	3877	190.980255368641	0.05
0	3879	191.080255368641	0.05
0	3881	191.180255368641	0.05
0	3881	191.236941331	0.05
0	3883	191.280255368641	0.05
0	3885	191.380255368641	0.05
0	3887	191.480255368641	0.05
0	3889	191.580255368641	0.05
0	3891	191.680255368641	0.0495
0	3891	191.680255368641	0.0495
0	3891	191.745328282	0.049760291653436
0	3893	191.780255368641	0.0499
0	3895	191.880255368641	0.05
0	3897	191.980255368641	0.05
0	3897	192.04306603	0.05
0	3899	192.080255368641	0.05
0	3901	192.180255368641	0.05
0	3903	192.280255368641	0.05
0	3905	192.380255368641	0.05
0	3907	192.480255368641	0.05
0	3909	192.580255368641	0.05
0	3909	192.663820444	0.05
0	3911	192.680255368641	0.05
0	3913	192.780255368641	0.05
0	3915	192.880255368641	0.05
0	3917	192.980255368641	0.05
0	3919	193.080255368641	0.0495
0	3919	193.080255368641	0.0495
0	3919	193.114610653	0.049637421137436
0	3921	193.180255368641	0.0499
0	3923	193.280255368641	0.05
0	3925	193.380255368641	0.05
0	3925	193.40620486	0.05
0	3927	193.480255368641	0.05
0	3929	193.580255368641	0.05
0	3931	193.680255368641	0.05
0	3933	193.780255368641	0.05
0	3935	193.880255368641	0.05
0	3935	193.914900337	0.05
0	3937	193.980255368641	0.05
0	3939	194.080255368641	0.05
0	3941	194.180255368641	0.05
0	3943	194.280255368641	0.05
0	3943	194.331484303	0.05
0	3945	194.380255368641	0.0495
0	3945	194.380255368641	0.0495
0	3947	194.480255368641	0.0499
0	3949	194.580255368641	0.05
0	3949	194.630358919	0.05
0	3951	194.680255368641	0.05
0	3953	194.780255368641	0.05
0	3955	194.880255368641	0.05
0	3957	194.980255368641	0.05
0	3958	195.028824987063	0.05
0	3959	195.105585103	0.05
0	3960	195.128824987063	0.05
0	3962	195.228824987063	0.05
0	3964	195.328824987063	0.05
0	3966	195.428824987063	0.05
0	3968	195.528824987063	0.05
0	3968	195.569483515	0.05
0	3970	195.628824987063	0.05
0	3972	195.728824987063	0.05
0	3974	195.828824987063	0.05
0	3976	195.928824987063	0.05
0	3978	196.028824987063	0.05
0	3980	196.128824987063	0.05
0	3980	196.139386696	0.05
0	3982	196.228824987063	0.05
0	3984	196.328824987063	0.05
0	3986	196.428824987063	0.05
0	3988	196.528824987063	0.05
0	3990	196.628824987063	0.05
0	3990	196.66528573	0.05
0	3992	196.728824987063	0.05
0	3994	196.828824987063	0.05
0	3996	196.928824987063	0.05
0	3998	197.028824987063	0.05
0	4000	197.128824987063	0.05
0	4001	197.213035084	0.05
0	4002	197.228824987063	0.05
0	4004	197.328824987063	0.05
0	4006	197.428824987063	0.05
0	4008	197.528824987063	0.05
0	4010	197.628824987063	0.05
0	4012	197.728824987063	0.05
0	4014	197.828824987063	0.05
0	4015	197.923993051	0.05
0	4016	197.928824987063	0.05
0	4018	198.028824987063	0.05
0	4020	198.128824987063	0.05
0	4022	198.228824987063	0.05
0	4024	198.328824987063	0.05
0	4026	198.428824987063	0.05
0	4027	198.493967929	0.05
0	4028	198.528824987063	0.05
0	4030	198.628824987063	0.05
0	4032	198.728824987063	0.05
0	4034	198.828824987063	0.05
0	4036	198.928824987063	0.05
0	4038	199.028824987063	0.05
0	4039	199.10774323	0.05
0	4040	199.128824987063	0.05
0	4042	199.228824987063	0.05
0	4044	199.328824987063	0.05
0	4046	199.428824987063	0.05
0	4048	199.528824987063	0.05
0	4050	199.628824987063	0.05
0	4051	199.712353831	0.05
0	4052	199.728824987063	0.05
0	4054	199.828824987063	0.05
0	4056	199.928824987063	0.05
0	4058	200.028824987063	0.05
0	4060	200.128824987063	0.05
0	4062	200.228824987063	0.05
0	4063	200.320160779	0.05
0	4064	200.328824987063	0.05
0	4066	200.428824987063	0.05
0	4068	200.528824987063	0.05
0	4070	200.628824987063	0.05
0	4072	200.728824987063	0.05
0	4073	200.814347572	0.05
0	4074	200.828824987063	0.05
0	4076	200.928824987063	0.05
0	4078	201.028824987063	0.05
0	4080	201.128824987063	0.05
0	4082	201.228824987063	0.05
0	4083	201.283180321	0.05
0	4084	201.328824987063	0.05
0	4086	201.428824987063	0.05
0	4088	201.528824987063	0.05
0	4088	201.562369501	0.0495
0	4088	201.562369501	0.0495
0	4090	201.628824987063	0.049765821944252
0	4092	201.728824987063	0.05
0	4094	201.828824987063	0.05
0	4096	201.928824987063	0.05
0	4097	202.013659357	0.05
0	4098	202.028824987063	0.05
0	4100	202.128824987063	0.05
0	4102	202.228824987063	0.05
0	4104	202.328824987063	0.05
0	4106	202.428824987063	0.05
0	4106	202.464427687	0.05
0	4108	202.528824987063	0.05
0	4110	202.628824987063	0.05
0	4112	202.728824987063	0.05
0	4114	202.828824987063	0.05
0	4116	202.928824987063	0.05
0	4116	202.951665595	0.0495
0	4116	202.951665595	0.0495
0	4118	203.028824987063	0.049808637568252
0	4120	203.128824987063	0.05
0	4122	203.228824987063	0.05
0	4124	203.328824987063	0.05
0	4126	203.428824987063	0.05
0	4127	203.492922733	0.05
0	4128	203.528824987063	0.05
0	4130	203.628824987063	0.05
0	4132	203.728824987063	0.05
0	4134	203.828824987063	0.05
0	4136	203.928824987063	0.05
0	4137	204.016965475	0.05
0	4138	204.028824987063	0.05
0	4140	204.128824987063	0.05
0	4142	204.228824987063	0.05
0	4144	204.328824987063	0.05
0	4146	204.428824987063	0.05
[...]
2	6012	294.346010009396	0.046137234721396
2	6014	294.446010009396	0.046137234721396
2	6016	294.546010009396	0.046137234721396
2	6017	294.578713216644	0.046137234721396
2	6017	294.625750771	0.04632538493882
2	6019	294.646010009396	0.046406421892404
2	6020	294.669404536295	0.046035
2	6020	294.669404536295	0.046035
2	6022	294.746010009396	0.046341421892404
2	6023	294.785654536295	0.0465
2	6025	294.846010009396	0.046741421892404
2	6026	294.910654536295	0.047
2	6028	294.946010009396	0.047141421892404
2	6029	294.978140133818	0.047269942390092
2	6031	295.035654536295	0.0475
2	6032	295.078140133818	0.047669942390092
2	6032	295.125439858	0.04785914128682
2	6034	295.160654536295	0.048
2	6035	295.178140133818	0.048069942390092
2	6037	295.278140133818	0.048469942390092
2	6038	295.285654536295	0.0485
2	6040	295.378140133818	0.048869942390092
2	6041	295.410654536295	0.049
2	6043	295.478140133818	0.049269942390092
2	6045	295.535654536295	0.0495
2	6045	295.556142913	0.04958195350682
2	6046	295.578140133818	0.049669942390092
2	6048	295.660654536295	0.05
2	6049	295.678140133818	0.05
2	6051	295.778140133818	0.05
2	6053	295.878140133818	0.05
2	6055	295.978140133818	0.05
2	6056	296.072688844	0.05
2	6057	296.078140133818	0.05
2	6059	296.178140133818	0.05
2	6061	296.278140133818	0.05
2	6063	296.378140133818	0.05
2	6065	296.478140133818	0.05
2	6066	296.573272438	0.05
2	6067	296.578140133818	0.05
2	6069	296.678140133818	0.05
2	6071	296.778140133818	0.05
2	6073	296.878140133818	0.05
2	6075	296.978140133818	0.05
2	6075	297.018474535	0.05
2	6077	297.078140133818	0.05
2	6079	297.178140133818	0.05
2	6081	297.278140133818	0.05
2	6083	297.378140133818	0.05
2	6085	297.478140133818	0.05
2	6085	297.498523078	0.05
2	6087	297.578140133818	0.05
2	6089	297.678140133818	0.05
2	6090	297.744589387	0.05
2	6091	297.778140133818	0.05
2	6093	297.878140133818	0.05
2	6095	297.978140133818	0.05
2	6097	298.078140133818	0.05
2	6099	298.178140133818	0.05
2	6101	298.278140133818	0.05
2	6101	298.306826308	0.05
2	6103	298.378140133818	0.05
2	6105	298.478140133818	0.05
2	6107	298.578140133818	0.05
2	6109	298.678140133818	0.05
2	6110	298.770092776	0.05
2	6111	298.778140133818	0.05
2	6113	298.878140133818	0.05
2	6115	298.978140133818	0.05
2	6116	299.066123692	0.05
2	6117	299.078140133818	0.05
2	6119	299.178140133818	0.05
2	6121	299.278140133818	0.05
2	6123	299.378140133818	0.05
2	6125	299.478140133818	0.05
2	6125	299.516498749	0.05
2	6127	299.578140133818	0.05
2	6129	299.678140133818	0.05
2	6131	299.778140133818	0.05
2	6133	299.878140133818	0.05
2	6135	299.978140133818	0.05
2	6135	300.000845296	0.05
2	6137	300.078140133818	0.05
2	6139	300.178140133818	0.05
2	6141	300.278140133818	0.05
2	6143	300.378140133818	0.05
2	6145	300.478140133818	0.05
2	6145	300.510296773	0.05
2	6147	300.578140133818	0.05
2	6149	300.678140133818	0.05
2	6151	300.778140133818	0.05
2	6151	300.802270921	0.05
2	6153	300.878140133818	0.05
2	6155	300.978140133818	0.05
2	6157	301.063972809345	0.05
2	6157	301.067762449	0.05
2	6158	301.078140133818	0.05
2	6160	301.178140133818	0.0495
2	6160	301.178140133818	0.0495
2	6162	301.278140133818	0.0495
2	6164	301.378140133818	0.0495
2	6166	301.478140133818	0.0495
2	6167	301.567751551	0.0495
2	6168	301.578140133818	0.0495
2	6170	301.678140133818	0.0495
2	6172	301.778140133818	0.0495
2	6174	301.878140133818	0.0495
2	6176	301.978140133818	0.0495
2	6178	302.078140133818	0.0495
2	6178	302.107660372	0.0495
2	6180	302.178140133818	0.0495
2	6182	302.278140133818	0.0495
2	6184	302.378140133818	0.0495
2	6186	302.478140133818	0.0495
2	6188	302.578140133818	0.0495
2	6188	302.618980294	0.049005
2	6188	302.618980294	0.049005
2	6190	302.678140133818	0.049005
2	6192	302.778140133818	0.049005
2	6194	302.878140133818	0.049005
2	6196	302.978140133818	0.049005
2	6198	303.078140133818	0.049005
2	6198	303.085461571	0.049005
2	6200	303.178140133818	0.049005
2	6202	303.278140133818	0.049005
2	6204	303.378140133818	0.049005
2	6206	303.478140133818	0.049005
2	6208	303.578140133818	0.049005
2	6209	303.656209432	0.049005
2	6210	303.678140133818	0.049005
2	6212	303.778140133818	0.049005
2	6214	303.878140133818	0.049005
2	6216	303.978140133818	0.049005
2	6218	304.078140133818	0.04851495
2	6218	304.078140133818	0.04851495
2	6219	304.144520074	0.04851495
2	6220	304.178140133818	0.04851495
2	6222	304.278140133818	0.04851495
2	6224	304.378140133818	0.04851495
2	6226	304.478140133818	0.04851495
2	6227	304.575230512	0.04851495
2	6228	304.578140133818	0.04851495
2	6230	304.678140133818	0.04851495
2	6232	304.778140133818	0.04851495
2	6234	304.878140133818	0.04851495
2	6236	304.978140133818	0.04851495
2	6237	305.042424307	0.04851495
2	6238	305.078140133818	0.04851495
2	6240	305.178140133818	0.04851495
2	6242	305.278140133818	0.04851495
2	6244	305.378140133818	0.04851495
2	6246	305.478140133818	0.0480298005
2	6246	305.478140133818	0.0480298005
2	6246	305.50044586	0.0480298005
2	6248	305.578140133818	0.0480298005
2	6250	305.678140133818	0.0480298005
2	6252	305.778140133818	0.0480298005
2	6254	305.878140133818	0.0480298005
2	6256	305.978140133818	0.0480298005
2	6257	306.034462081	0.0480298005
2	6258	306.078140133818	0.0480298005
2	6260	306.178140133818	0.0480298005
2	6262	306.278140133818	0.0480298005
2	6264	306.378140133818	0.0480298005
2	6266	306.478140133818	0.0480298005
2	6268	306.578140133818	0.0480298005
2	6268	306.617758375	0.0480298005
2	6270	306.678140133818	0.0480298005
2	6272	306.778140133818	0.0480298005
2	6274	306.878140133818	0.047549502495
2	6274	306.878140133818	0.047549502495
2	6276	306.978140133818	0.047549502495
2	6279	307.078140133818	0.047549502495
2	6280	307.162559725	0.047549502495
2	6281	307.178140133818	0.047549502495
2	6283	307.278140133818	0.047549502495
2	6285	307.378140133818	0.047549502495
2	6287	307.478140133818	0.047549502495
2	6289	307.578140133818	0.047549502495
2	6291	307.678140133818	0.047549502495
2	6291	307.70493577	0.047549502495
2	6293	307.778140133818	0.047549502495
2	6295	307.878140133818	0.047549502495
2	6297	307.978140133818	0.047549502495
2	6299	308.078140133818	0.047549502495
2	6301	308.178140133818	0.047549502495
2	6301	308.219790166	0.047549502495
2	6303	308.278140133818	0.047549502495
2	6305	308.378140133818	0.047549502495
2	6307	308.478140133818	0.047549502495
2	6309	308.578140133818	0.047549502495
2	6311	308.678140133818	0.047549502495
2	6312	308.778072031	0.047549502495
2	6313	308.778140133818	0.047549502495
2	6315	308.878140133818	0.047549502495
2	6317	308.978140133818	0.047549502495
2	6319	309.078140133818	0.047549502495
2	6321	309.178140133818	0.047549502495
2	6323	309.278140133818	0.047549502495
2	6323	309.305273173	0.047549502495
2	6325	309.378140133818	0.047549502495
2	6327	309.478140133818	0.047549502495
2	6329	309.578140133818	0.047549502495
2	6331	309.678140133818	0.047549502495
2	6332	309.772721743	0.047549502495
2	6333	309.778140133818	0.047549502495
2	6335	309.878140133818	0.047549502495
2	6337	309.978140133818	0.047549502495
2	6339	310.078140133818	0.047549502495
2	6341	310.178140133818	0.047549502495
2	6343	310.278140133818	0.047549502495
2	6345	310.378140133818	0.047549502495
2	6345	310.431917524	0.047549502495
2	6347	310.478140133818	0.047549502495
2	6349	310.578140133818	0.047549502495
2	6351	310.678140133818	0.047549502495
2	6353	310.778140133818	0.047549502495
2	6355	310.878140133818	0.047549502495
2	6357	310.978140133818	0.047549502495
2	6359	311.078140133818	0.047549502495
2	6359	311.101983514	0.047549502495
2	6361	311.178140133818	0.047549502495
2	6363	311.278140133818	0.047549502495
2	6365	311.378140133818	0.047549502495
2	6367	311.478140133818	0.047549502495
2	6369	311.578140133818	0.047549502495
2	6369	311.597975677	0.047549502495
2	6371	311.678140133818	0.047549502495
2	6373	311.778140133818	0.047549502495
2	6375	311.878140133818	0.047549502495
2	6377	311.978140133818	0.047549502495
2	6379	312.078140133818	0.047549502495
2	6381	312.178140133818	0.047549502495
2	6381	312.225313105	0.047549502495
2	6383	312.278140133818	0.047549502495
2	6385	312.378140133818	0.047549502495
2	6387	312.478140133818	0.047549502495
2	6389	312.578140133818	0.047549502495
2	6391	312.678140133818	0.047549502495
2	6393	312.778140133818	0.047549502495
2	6394	312.852330859	0.047549502495
2	6395	312.878140133818	0.047549502495
2	6397	312.978140133818	0.047549502495
2	6399	313.078140133818	0.047549502495
2	6401	313.178140133818	0.047549502495
2	6403	313.278140133818	0.047549502495
2	6405	313.378140133818	0.047549502495
2	6407	313.478140133818	0.047549502495
2	6407	313.491340576	0.047549502495
2	6409	313.578140133818	0.047549502495
2	6411	313.678140133818	0.047549502495
2	6413	313.778140133818	0.047549502495
2	6415	313.878140133818	0.047549502495
2	6417	313.978140133818	0.047549502495
2	6418	314.061353056	0.04707400747005
2	6418	314.061353056	0.04707400747005
2	6419	314.078140133818	0.04707400747005
2	6421	314.178140133818	0.04707400747005
2	6423	314.278140133818	0.04707400747005
2	6425	314.378140133818	0.04707400747005
2	6427	314.478140133818	0.04707400747005
2	6429	314.578140133818	0.04707400747005
2	6429	314.631287053	0.04707400747005
2	6431	314.678140133818	0.04707400747005
2	6433	314.778140133818	0.04707400747005
2	6435	314.878140133818	0.04707400747005
2	6437	314.978140133818	0.04707400747005
2	6439	315.078140133818	0.04707400747005
2	6440	315.157970338	0.04707400747005
2	6441	315.178140133818	0.04707400747005
2	6443	315.278140133818	0.04707400747005
2	6445	315.378140133818	0.04707400747005
2	6447	315.478140133818	0.04707400747005
2	6449	315.578140133818	0.04707400747005
2	6451	315.678140133818	0.04707400747005
2	6451	315.704158144	0.04707400747005
2	6453	315.778140133818	0.04707400747005
2	6455	315.878140133818	0.04707400747005
2	6458	315.978140133818	0.04707400747005
2	6460	316.078140133818	0.04707400747005
2	6462	316.178140133818	0.04707400747005
2	6462	316.182298261	0.04707400747005
2	6464	316.278140133818	0.04707400747005
2	6466	316.378140133818	0.04707400747005
2	6468	316.478140133818	0.04707400747005
2	6470	316.578140133818	0.04707400747005
2	6472	316.678140133818	0.04707400747005
2	6472	316.687068787	0.04707400747005
2	6474	316.778140133818	0.04707400747005
2	6476	316.878140133818	0.04660326739535
2	6476	316.878140133818	0.04660326739535
2	6478	316.978140133818	0.04660326739535
2	6480	317.078140133818	0.04660326739535
2	6480	317.13646474	0.04660326739535
2	6482	317.178140133818	0.04660326739535
2	6484	317.278140133818	0.04660326739535
2	6486	317.378140133818	0.04660326739535
2	6488	317.478140133818	0.04660326739535
2	6490	317.578140133818	0.04660326739535
2	6490	317.621447566	0.04660326739535
2	6492	317.678140133818	0.04660326739535
2	6494	317.778140133818	0.04660326739535
2	6496	317.878140133818	0.04660326739535
2	6498	317.978140133818	0.04660326739535
2	6500	318.078140133818	0.04660326739535
2	6500	318.089407879	0.04660326739535
2	6502	318.178140133818	0.04660326739535
2	6504	318.278140133818	0.046137234721396
2	6504	318.278140133818	0.046137234721396
2	6506	318.378140133818	0.046137234721396
2	6508	318.478140133818	0.046137234721396
2	6508	318.567713515	0.046137234721396
2	6510	318.578140133818	0.046137234721396
2	6512	318.678140133818	0.046137234721396
2	6514	318.778140133818	0.046137234721396
2	6514	318.857693317	0.046137234721396
2	6516	318.878140133818	0.046137234721396
2	6518	318.978140133818	0.046137234721396
2	6519	319.001741639947	0.046137234721396
2	6521	319.078140133818	0.04644282869688
2	6522	319.092432959598	0.0465
2	6524	319.178140133818	0.04684282869688
2	6525	319.217432959598	0.047
2	6525	319.258687585	0.047165018501608
2	6527	319.278140133818	0.04724282869688
2	6528	319.342432959598	0.0475
2	6530	319.378140133818	0.04764282869688
2	6531	319.467432959598	0.048
2	6533	319.478140133818	0.04804282869688
2	6533	319.55506483	0.048350527481608
2	6535	319.578140133818	0.04844282869688
2	6536	319.592432959598	0.0485
2	6538	319.678140133818	0.04884282869688
2	6539	319.717432959598	0.049
2	6541	319.778140133818	0.04924282869688
2	6542	319.842432959598	0.0495
2	6544	319.878140133818	0.04964282869688
2	6544	319.946038717	0.049914423029608
2	6545	319.967432959598	0.05
2	6547	319.978140133818	0.05
2	6550	320.078140133818	0.05
2	6552	320.178140133818	0.05
2	6554	320.278140133818	0.05
2	6556	320.378140133818	0.05
2	6556	320.431762747	0.05
2	6558	320.478140133818	0.05
2	6560	320.578140133818	0.05
2	6562	320.678140133818	0.05
2	6564	320.778140133818	0.05
2	6566	320.878140133818	0.05
2	6567	320.975721946	0.05
2	6568	320.978140133818	0.05
2	6570	321.078140133818	0.05
2	6572	321.178140133818	0.05
2	6572	321.256837405	0.05
2	6574	321.278140133818	0.05
2	6576	321.378140133818	0.05
2	6578	321.478140133818	0.05
2	6580	321.578140133818	0.05
2	6582	321.678140133818	0.05
2	6584	321.778140133818	0.05
2	6584	321.792244312	0.05
2	6586	321.878140133818	0.05
2	6588	321.978140133818	0.05
2	6590	322.078140133818	0.05
2	6592	322.178140133818	0.05
2	6592	322.224478564	0.05
2	6594	322.278140133818	0.05
2	6596	322.378140133818	0.05
2	6598	322.478140133818	0.05
2	6600	322.578140133818	0.05
2	6600	322.640774062	0.05
2	6602	322.678140133818	0.05
2	6604	322.778140133818	0.05
2	6606	322.878140133818	0.05
2	6608	322.978140133818	0.05
2	6608	323.056277878	0.05
2	6610	323.078140133818	0.05
2	6612	323.178140133818	0.05
2	6614	323.278140133818	0.05
2	6616	323.378140133818	0.05
2	6618	323.478140133818	0.05
2	6618	323.549276272	0.05
2	6620	323.578140133818	0.05
2	6622	323.678140133818	0.05
2	6624	323.778140133818	0.05
2	6626	323.878140133818	0.05
2	6628	323.978140133818	0.05
2	6630	324.078140133818	0.05
2	6630	324.081577429	0.05
2	6632	324.178140133818	0.05
2	6634	324.278140133818	0.05
2	6636	324.378140133818	0.05
2	6638	324.478140133818	0.05
2	6640	324.578140133818	0.05
2	6640	324.591954325	0.05
2	6642	324.678140133818	0.05
2	6644	324.778140133818	0.05
2	6646	324.878140133818	0.05
2	6648	324.978140133818	0.05
2	6649	325.07804173	0.05
2	6650	325.078140133818	0.05
2	6652	325.178140133818	0.05
2	6654	325.278140133818	0.05
2	6656	325.378140133818	0.05
2	6658	325.478140133818	0.05
2	6660	325.578140133818	0.05
2	6660	325.592955946	0.05
2	6662	325.678140133818	0.05
2	6664	325.778140133818	0.05
2	6666	325.878140133818	0.05
2	6668	325.978140133818	0.05
2	6670	326.078140133818	0.05
2	6670	326.080687195	0.05
2	6672	326.178140133818	0.05
2	6674	326.278140133818	0.05
2	6676	326.378140133818	0.05
2	6678	326.478140133818	0.05
2	6678	326.532535207	0.05
2	6680	326.578140133818	0.05
2	6682	326.678140133818	0.05
2	6684	326.778140133818	0.05
2	6684	326.832721408	0.05
2	6686	326.878140133818	0.05
2	6688	326.978140133818	0.05
2	6690	327.078140133818	0.05
2	6692	327.178140133818	0.05
2	6694	327.278140133818	0.05
2	6694	327.347655331	0.05
2	6696	327.378140133818	0.05
2	6698	327.478140133818	0.05
2	6700	327.578140133818	0.05
2	6702	327.678140133818	0.05
2	6704	327.778140133818	0.05
2	6704	327.799510588	0.05
2	6706	327.878140133818	0.05
2	6708	327.978140133818	0.05
2	6710	328.078140133818	0.05
2	6712	328.178140133818	0.05
2	6712	328.251731569	0.05
2	6714	328.278140133818	0.05
2	6716	328.378140133818	0.05
2	6718	328.478140133818	0.05
2	6720	328.578140133818	0.05
2	6722	328.678140133818	0.05
2	6722	328.736775226	0.05
2	6724	328.778140133818	0.05
2	6726	328.878140133818	0.05
2	6728	328.978140133818	0.05
2	6730	329.078140133818	0.05
2	6730	329.169122428	0.05
2	6732	329.178140133818	0.05
2	6734	329.278140133818	0.05
2	6736	329.378140133818	0.05
2	6738	329.478140133818	0.05
2	6740	329.578140133818	0.05
2	6740	329.633838685	0.05
2	6742	329.678140133818	0.05
2	6744	329.778140133818	0.05
2	6746	329.878140133818	0.05
2	6748	329.978140133818	0.05
2	6750	330.078140133818	0.05
2	6750	330.120855205	0.05
2	6752	330.178140133818	0.05
2	6754	330.278140133818	0.05
2	6756	330.378140133818	0.05
2	6758	330.478140133818	0.05
2	6760	330.578140133818	0.05
2	6760	330.626531728	0.05
2	6762	330.678140133818	0.05
2	6764	330.778140133818	0.05
2	6766	330.878140133818	0.05
2	6768	330.978140133818	0.05
2	6770	331.078140133818	0.05
2	6770	331.14479485	0.05
2	6772	331.178140133818	0.05
2	6774	331.278140133818	0.05
2	6776	331.378140133818	0.05
2	6778	331.478140133818	0.05
2	6778	331.55620633	0.05
2	6780	331.578140133818	0.05
2	6782	331.678140133818	0.05
2	6784	331.778140133818	0.05
2	6786	331.878140133818	0.05
2	6788	331.978140133818	0.05
2	6788	331.981968433	0.05
2	6790	332.078140133818	0.05
2	6792	332.178140133818	0.05
2	6792	332.263724524	0.05
2	6794	332.278140133818	0.05
2	6796	332.378140133818	0.05
2	6798	332.478140133818	0.05
2	6798	332.5565602	0.05
2	6800	332.578140133818	0.05
2	6802	332.678140133818	0.05
2	6804	332.778140133818	0.05
2	6806	332.878140133818	0.05
2	6808	332.978140133818	0.05
2	6808	333.005016118	0.05
2	6810	333.078140133818	0.05
2	6812	333.178140133818	0.05
2	6814	333.278140133818	0.05
2	6816	333.378140133818	0.05
2	6818	333.478140133818	0.05
2	6818	333.548184592	0.05
2	6820	333.578140133818	0.05
2	6822	333.678140133818	0.05
2	6824	333.778140133818	0.05
2	6826	333.878140133818	0.05
2	6828	333.978140133818	0.05
2	6829	334.073529409	0.05
2	6830	334.078140133818	0.05
2	6832	334.178140133818	0.05
2	6834	334.278140133818	0.05
2	6836	334.378140133818	0.05
2	6838	334.478140133818	0.05
2	6838	334.519571017	0.05
2	6840	334.578140133818	0.05
2	6842	334.678140133818	0.05
2	6844	334.778140133818	0.05
2	6846	334.878140133818	0.05
2	6848	334.978140133818	0.05
2	6848	334.988969632	0.05
2	6850	335.078140133818	0.05
2	6852	335.178140133818	0.05
2	6854	335.278140133818	0.05
2	6856	335.378140133818	0.05
2	6858	335.478140133818	0.05
2	6858	335.513437063	0.05
2	6860	335.578140133818	0.05
2	6862	335.678140133818	0.05
2	6864	335.778140133818	0.05
2	6866	335.878140133818	0.05
2	6868	335.978140133818	0.05
2	6868	335.996993851	0.05
2	6870	336.078140133818	0.05
2	6872	336.178140133818	0.05
2	6874	336.278140133818	0.05
2	6876	336.378140133818	0.05
2	6878	336.478140133818	0.05
2	6878	336.491761132	0.05
2	6880	336.578140133818	0.05
2	6882	336.678140133818	0.05
2	6884	336.778140133818	0.05
2	6886	336.878140133818	0.05
2	6886	336.927662554	0.05
2	6888	336.978140133818	0.05
2	6890	337.078140133818	0.05
2	6892	337.178140133818	0.05
2	6892	337.216507693	0.05
2	6894	337.278140133818	0.05
2	6896	337.378140133818	0.05
2	6898	337.478140133818	0.05
2	6898	337.512521998	0.05
2	6900	337.578140133818	0.05
2	6902	337.678140133818	0.05
2	6904	337.778140133818	0.05
2	6904	337.782995728	0.05
2	6906	337.878140133818	0.05
2	6908	337.978140133818	0.05
2	6909	338.075337076	0.05
2	6910	338.078140133818	0.05
2	6912	338.178140133818	0.05
2	6914	338.278140133818	0.05
2	6916	338.378140133818	0.05
2	6918	338.478140133818	0.05
2	6920	338.578140133818	0.05
2	6920	338.580704347	0.05
2	6922	338.678140133818	0.05
2	6924	338.778140133818	0.05
2	6926	338.878140133818	0.05
2	6927	338.937174745122	0.05
2	6929	338.978140133818	0.05
2	6929	339.037552225	0.05
2	6931	339.078140133818	0.05
2	6933	339.178140133818	0.05
2	6935	339.278140133818	0.05
2	6937	339.378140133818	0.05
2	6939	339.478140133818	0.05
2	6939	339.511432399	0.05
2	6939	339.572272317079	0.05
3	0	0	0.004
3	944	46.974101355068	0
3	997	49.519492404494	0.004
3	1724	85.723145503235	0
3	3303	163.558212514978	0.004
3	3332	164.50546222386	0
3	3774	185.896546036816	0.004
3	3775	185.91913834642	0
3	5110	252.542984432933	0.004
3	5596	273.709575061406	0
3	6017	294.578713216644	0.004
3	6157	301.063972809345	0
3	6519	319.001741639947	0.004
3	6927	338.937174745122	0
4	0	0	0.004
4	461	23.08057828677	0
4	510	25.427441968835	0.004
4	850	42.301216310165	0
4	897	44.683328381977	0.004
4	2113	105.15961323594	0
4	2665	132.565346292617	0.004
4	2955	146.28182876859	0
4	3563	176.073947931274	0.004
4	4686	231.370800556792	0
4	5491	269.426728413388	0.004
5	0	0	0.004
5	944	46.974101355068	0
5	997	49.519492404494	0.004
5	1724	85.723145503235	0
5	3303	163.558212514978	0.004
5	3332	164.50546222386	0
5	3774	185.896546036816	0.004
5	3775	185.91913834642	0
5	5110	252.542984432933	0.004
5	5596	273.709575061406	0
5	6017	294.578713216644	0.004
5	6157	301.063972809345	0
5	6519	319.001741639947	0.004
5	6927	338.937174745122	0

