version 2
run Mysterio_ex2-0-20211019-22:42:42-10100
attr configname Mysterio_ex2
attr datetime 20211019-22:42:42
attr experiment Mysterio_ex2
attr inifile omnetpp.ini
attr iterationvars ""
attr iterationvarsf ""
attr measurement ""
attr network MysterioCommunication2
attr processid 10100
attr repetition 0
attr replication #0
attr resultdir results
attr runnumber 0
attr seedset 0
param *.host[*].mobility.numeroDrones 2
param *.numHosts 2
param *.host[*].osgModel "\"3d/drone.ive.100.scale.0,0,90.rot\""
param *.basestation.osgModel "\"3d/car.ive.50.scale.0,0,90.rot\""
param *.canvasVisualizer.energyStorageVisualizer.displayEnergyStorages true
param *.host[*].hasStatus true
param *.host[*].energyStorage.typename "\"SimpleEpEnergyStorage\""
param *.host[*].wlan[*].radio.energyConsumer.typename "\"StateBasedEpEnergyConsumer\""
param *.host[*].energyManagement.typename "\"SimpleEpEnergyManagement\""
param *.host[*].energyStorage.nominalCapacity 0.05J
param *.host[*].energyManagement.nodeShutdownCapacity "0.1 * energyStorage.nominalCapacity"
param *.host[*].energyManagement.nodeStartCapacity "0.5 * energyStorage.nominalCapacity"
param *.host[*].energyStorage.initialCapacity 0.05J
param *.host[*].energyGenerator.typename "\"AlternatingEpEnergyGenerator\""
param *.host[*].energyGenerator.powerGeneration 4mW
param *.host[*].energyGenerator.sleepInterval exponential(25s)
param *.host[*].energyGenerator.generationInterval exponential(25s)
param *.host[*].mobility.typename "\"UAVMobility\""
param *.host[*].mobility.changeInterval 1s
param *.host[*].mobility.initialMovementHeading "uniform(0deg, 360deg)"
param *.host[*].mobility.initialMovementElevation "uniform(-90deg, 90deg)"
param *.host[*].mobility.angleDelta uniform(-10deg,10deg)
param *.host[*].mobility.rotationAxisAngle uniform(-10deg,10deg)
param *.host[*].mobility.speed uniform(10mps,20mps)
param *.host[*].mobility.faceForward false
param *.host[*].mobility.initialX 220m
param *.host[*].mobility.initialY 220m
param *.host[*].mobility.initialZ 80m
param *.visualizer.osgVisualizer.typename "\"IntegratedOsgVisualizer\""
param *.visualizer.osgVisualizer.sceneVisualizer.clearColor "\"skyblue\""
param *.visualizer.osgVisualizer.sceneVisualizer.sceneImage "\"showcases/desert\""
param *.visualizer.osgVisualizer.sceneVisualizer.sceneImageSize 5000m
param *.visualizer.osgVisualizer.sceneVisualizer.axisLength 1000m
param *.visualizer.osgVisualizer.sceneVisualizer.sceneMinX -2000m
param *.visualizer.osgVisualizer.sceneVisualizer.sceneMinY -2000m
param *.visualizer.osgVisualizer.sceneVisualizer.sceneMinZ 0m
param *.visualizer.osgVisualizer.sceneVisualizer.sceneMaxX 3000m
param *.visualizer.osgVisualizer.sceneVisualizer.sceneMaxY 3000m
param *.visualizer.osgVisualizer.sceneVisualizer.sceneMaxZ 1000m
param *.visualizer.osgVisualizer.networkNodeVisualizer.displayModuleName false
param *.visualizer.*.mobilityVisualizer.displayMobility true
param *.visualizer.*.mobilityVisualizer.displayPositions true
param *.visualizer.*.mobilityVisualizer.displayOrientations false
param *.visualizer.*.mobilityVisualizer.displayVelocities true
param *.visualizer.*.mobilityVisualizer.displayMovementTrails true
param *.visualizer.*.mobilityVisualizer.animationSpeed 3
param **.constraintAreaMinX 0m
param **.constraintAreaMinY 0m
param **.constraintAreaMinZ 0m
param **.constraintAreaMaxX 1000m
param **.constraintAreaMaxY 1000m
param **.constraintAreaMaxZ 1000m
param **.networkConfiguratorModule "\"\""

vector 0 MysterioCommunication2.host[0].energyStorage residualEnergyCapacity:vector ETV
attr interpolationmode linear
attr source residualEnergyCapacityChanged
attr title "Residual energy capacity, vector"
vector 1 MysterioCommunication2.host[0].energyGenerator powerGeneration:vector ETV
attr interpolationmode sample-hold
attr source powerGenerationChanged
attr title "Power generation, vector"
vector 2 MysterioCommunication2.host[1].energyStorage residualEnergyCapacity:vector ETV
attr interpolationmode linear
attr source residualEnergyCapacityChanged
attr title "Residual energy capacity, vector"
vector 3 MysterioCommunication2.host[1].energyGenerator powerGeneration:vector ETV
attr interpolationmode sample-hold
attr source powerGenerationChanged
attr title "Power generation, vector"
vector 4 MysterioCommunication2.host[0].energyStorage powerGeneration:vector ETV
attr interpolationmode sample-hold
attr source powerGenerationChanged
attr title "Power generation, vector"
vector 5 MysterioCommunication2.host[1].energyStorage powerGeneration:vector ETV
attr interpolationmode sample-hold
attr source powerGenerationChanged
attr title "Power generation, vector"
0	0	0	0.05
0	0	0.1	0.05
0	2	0.147832705	0.05
0	3	0.2	0.05
0	5	0.3	0.05
0	7	0.4	0.05
0	9	0.5	0.05
0	11	0.6	0.05
0	12	0.675961573	0.05
0	13	0.7	0.05
0	15	0.8	0.05
0	17	0.9	0.05
0	19	1	0.05
0	21	1.1	0.05
0	23	1.2	0.05
0	25	1.3	0.05
0	26	1.314926425	0.05
0	27	1.4	0.05
0	29	1.5	0.05
0	31	1.6	0.05
0	33	1.7	0.05
0	34	1.771740991	0.05
0	35	1.8	0.05
0	37	1.9	0.05
0	39	2	0.05
0	41	2.1	0.05
0	43	2.2	0.05
0	44	2.233991239	0.05
0	45	2.3	0.05
0	47	2.4	0.05
0	49	2.5	0.05
0	50	2.502517282	0.05
0	51	2.6	0.05
0	53	2.7	0.05
0	55	2.8	0.05
0	57	2.9	0.05
0	58	2.924746651	0.05
0	59	3	0.05
0	61	3.1	0.05
0	63	3.2	0.05
0	65	3.3	0.05
0	66	3.362832382	0.05
0	67	3.4	0.05
0	69	3.5	0.05
0	71	3.6	0.05
0	73	3.7	0.05
0	75	3.8	0.05
0	76	3.82612384	0.05
0	77	3.9	0.05
0	79	4	0.05
0	81	4.1	0.05
0	83	4.2	0.05
0	85	4.3	0.05
0	86	4.306140607	0.05
0	87	4.4	0.05
0	89	4.5	0.05
0	91	4.6	0.05
0	93	4.7	0.05
0	95	4.8	0.05
0	96	4.812896422	0.05
0	97	4.9	0.05
0	99	5	0.05
0	101	5.1	0.05
0	103	5.2	0.05
0	105	5.3	0.05
0	107	5.4	0.05
0	109	5.5	0.05
0	110	5.501798962	0.05
0	111	5.6	0.05
0	113	5.7	0.05
0	115	5.8	0.05
0	117	5.9	0.05
0	119	6	0.05
0	120	6.036839917	0.05
0	121	6.1	0.05
0	123	6.2	0.05
0	125	6.3	0.05
0	127	6.4	0.05
0	129	6.5	0.05
0	130	6.506989822	0.05
0	131	6.6	0.05
0	133	6.7	0.05
0	135	6.8	0.05
0	137	6.9	0.05
0	138	6.974667475	0.05
0	139	7	0.05
0	141	7.1	0.05
0	143	7.2	0.05
0	145	7.3	0.05
0	147	7.4	0.05
0	149	7.5	0.05
0	150	7.523631268	0.05
0	151	7.6	0.05
0	153	7.7	0.05
0	155	7.8	0.05
0	157	7.9	0.05
0	159	8	0.05
0	160	8.092542892	0.05
0	161	8.1	0.05
0	163	8.2	0.05
0	165	8.3	0.05
0	167	8.4	0.05
0	169	8.5	0.05
0	171	8.6	0.05
0	173	8.7	0.05
0	174	8.750961412	0.05
0	175	8.8	0.05
0	177	8.9	0.05
0	179	9	0.05
0	181	9.1	0.05
0	183	9.2	0.05
0	184	9.244110907	0.05
0	185	9.3	0.05
0	187	9.4	0.05
0	189	9.5	0.05
0	191	9.6	0.05
0	193	9.7	0.05
0	195	9.8	0.05
0	197	9.9	0.05
0	198	9.914847892	0.05
0	199	10	0.05
0	201	10.1	0.05
0	203	10.2	0.05
0	205	10.3	0.05
0	207	10.4	0.05
0	209	10.5	0.05
0	211	10.6	0.05
0	212	10.66608997	0.05
0	213	10.7	0.05
0	215	10.8	0.05
0	217	10.9	0.05
0	219	11	0.05
0	221	11.1	0.05
0	223	11.2	0.05
0	224	11.264794717	0.05
0	225	11.3	0.05
0	227	11.4	0.05
0	229	11.5	0.05
0	231	11.6	0.05
0	233	11.7	0.05
0	235	11.8	0.05
0	237	11.9	0.05
0	238	11.925455986	0.05
0	239	12	0.05
0	241	12.1	0.05
0	243	12.2	0.05
0	245	12.3	0.05
0	247	12.4	0.05
0	249	12.5	0.05
0	250	12.548095996	0.05
0	251	12.6	0.05
0	253	12.7	0.05
0	255	12.8	0.05
0	257	12.9	0.05
0	259	13	0.05
0	261	13.1	0.05
0	263	13.2	0.05
0	264	13.229549356	0.05
0	265	13.3	0.05
0	267	13.4	0.05
0	269	13.5	0.05
0	271	13.6	0.05
0	273	13.7	0.05
0	275	13.8	0.05
0	276	13.884839875	0.05
0	277	13.9	0.05
0	279	14	0.05
0	281	14.1	0.05
0	283	14.2	0.05
0	285	14.3	0.05
0	287	14.4	0.05
0	288	14.409812554	0.05
0	289	14.5	0.05
0	291	14.6	0.05
0	293	14.7	0.05
0	295	14.8	0.05
0	297	14.9	0.05
0	298	14.931329374	0.05
0	299	15	0.05
0	301	15.1	0.05
0	303	15.2	0.05
0	305	15.3	0.05
0	307	15.4	0.05
0	308	15.483692125	0.05
0	309	15.5	0.05
0	311	15.6	0.05
0	313	15.7	0.05
0	315	15.8	0.05
0	317	15.9	0.05
0	318	15.94308457	0.05
0	319	16	0.05
0	321	16.1	0.05
0	323	16.2	0.05
0	325	16.3	0.05
0	326	16.378793527	0.05
0	327	16.4	0.05
0	329	16.5	0.05
0	331	16.6	0.05
0	333	16.7	0.05
0	334	16.797880606	0.05
0	335	16.8	0.05
0	337	16.9	0.05
0	339	17	0.05
0	341	17.1	0.05
0	343	17.2	0.05
0	344	17.263287049	0.05
0	345	17.3	0.05
0	347	17.4	0.05
0	349	17.5	0.05
0	351	17.6	0.05
0	353	17.7	0.05
0	354	17.72882992	0.05
0	355	17.8	0.05
0	357	17.9	0.05
0	359	18	0.05
0	361	18.1	0.05
0	363	18.2	0.05
0	364	18.274919371	0.05
0	365	18.3	0.05
0	367	18.4	0.05
0	369	18.5	0.05
0	370	18.569489371	0.05
0	371	18.6	0.05
0	373	18.7	0.05
0	375	18.8	0.05
0	377	18.9	0.05
0	379	19	0.05
0	380	19.091414845	0.05
0	381	19.1	0.05
0	383	19.2	0.05
0	385	19.3	0.05
0	387	19.4	0.05
0	389	19.5	0.05
0	391	19.6	0.05
0	392	19.62422575	0.05
0	393	19.7	0.05
0	395	19.8	0.05
0	397	19.9	0.05
0	399	20	0.05
0	401	20.1	0.05
0	402	20.112456511	0.05
0	403	20.2	0.05
0	405	20.3	0.05
0	407	20.4	0.05
0	409	20.5	0.05
0	411	20.6	0.05
0	412	20.623423861	0.05
0	413	20.7	0.05
0	415	20.8	0.05
0	417	20.9	0.05
0	419	21	0.05
0	420	21.062378308	0.05
0	421	21.1	0.05
0	423	21.2	0.05
0	425	21.3	0.05
0	427	21.4	0.05
0	429	21.5	0.05
0	430	21.566719786	0.05
0	431	21.6	0.05
0	433	21.7	0.05
0	435	21.8	0.05
0	437	21.9	0.05
0	439	22	0.05
0	440	22.001177422	0.05
0	441	22.1	0.05
0	443	22.2	0.05
0	445	22.3	0.05
0	447	22.4	0.05
0	448	22.474583986	0.05
0	449	22.5	0.05
0	451	22.6	0.05
0	453	22.7	0.05
0	455	22.8	0.05
0	457	22.9	0.05
0	459	23	0.05
0	460	23.039849635	0.05
0	461	23.08057828677	0.05
0	462	23.1	0.05
0	464	23.2	0.05
0	466	23.3	0.05
0	468	23.4	0.05
0	470	23.5	0.05
0	472	23.6	0.05
0	473	23.668518502	0.05
0	474	23.7	0.05
0	476	23.8	0.05
0	478	23.9	0.05
0	480	24	0.05
0	482	24.1	0.05
0	483	24.166733563	0.0495
0	483	24.166733563	0.0495
0	484	24.2	0.0495
0	486	24.3	0.0495
0	488	24.4	0.0495
0	490	24.5	0.0495
0	492	24.6	0.0495
0	494	24.7	0.0495
0	495	24.724589224	0.0495
0	496	24.8	0.0495
0	498	24.9	0.0495
0	500	25	0.0495
0	502	25.1	0.0495
0	503	25.166611114	0.0495
0	504	25.2	0.0495
0	506	25.3	0.0495
0	508	25.4	0.0495
0	510	25.5	0.0495
0	512	25.6	0.049005
0	512	25.6	0.049005
0	514	25.7	0.049005
0	515	25.756478614	0.049005
0	516	25.8	0.049005
0	518	25.9	0.049005
0	520	26	0.049005
0	522	26.1	0.049005
0	524	26.2	0.049005
0	526	26.3	0.049005
0	527	26.302469413	0.049005
0	528	26.4	0.049005
0	530	26.5	0.049005
0	532	26.6	0.049005
0	534	26.7	0.049005
0	535	26.770387771	0.049005
0	536	26.8	0.049005
0	538	26.9	0.049005
0	540	27	0.04851495
0	540	27	0.04851495
0	542	27.1	0.04851495
0	544	27.2	0.04851495
0	545	27.241447366	0.04851495
0	546	27.3	0.04851495
0	548	27.4	0.04851495
0	550	27.5	0.04851495
0	552	27.6	0.04851495
0	554	27.7	0.04851495
0	555	27.720150403	0.04851495
0	556	27.8	0.04851495
0	558	27.9	0.04851495
0	560	28	0.04851495
0	562	28.1	0.04851495
0	564	28.2	0.04851495
0	566	28.3	0.04851495
0	567	28.316282779	0.04851495
0	568	28.4	0.0480298005
0	568	28.4	0.0480298005
0	570	28.5	0.0480298005
0	572	28.6	0.0480298005
0	574	28.7	0.0480298005
0	576	28.8	0.0480298005
0	578	28.9	0.0480298005
0	580	29	0.0480298005
0	581	29.077004056	0.0480298005
0	582	29.1	0.0480298005
0	584	29.2	0.0480298005
0	586	29.3	0.0480298005
0	588	29.4	0.0480298005
0	590	29.5	0.0480298005
0	592	29.6	0.0480298005
0	594	29.7	0.0480298005
0	595	29.732713453	0.0480298005
0	596	29.8	0.0480298005
0	598	29.9	0.047549502495
0	598	29.9	0.047549502495
0	600	30	0.047549502495
0	602	30.1	0.047549502495
0	604	30.2	0.047549502495
0	606	30.3	0.047549502495
0	607	30.319504675	0.047549502495
0	608	30.4	0.047549502495
0	610	30.5	0.047549502495
0	612	30.6	0.047549502495
0	614	30.7	0.047549502495
0	616	30.8	0.047549502495
0	618	30.9	0.047549502495
0	620	31	0.047549502495
0	621	31.004035411	0.047549502495
0	622	31.1	0.047549502495
0	624	31.2	0.047549502495
0	626	31.3	0.047549502495
0	628	31.4	0.04707400747005
0	628	31.4	0.04707400747005
0	630	31.5	0.04707400747005
0	632	31.6	0.04707400747005
0	634	31.7	0.04707400747005
0	635	31.766660116	0.04707400747005
0	636	31.8	0.04707400747005
0	638	31.9	0.04707400747005
0	640	32	0.04707400747005
0	642	32.1	0.04707400747005
0	644	32.2	0.04707400747005
0	646	32.3	0.04707400747005
0	648	32.4	0.04707400747005
0	649	32.439128887	0.04707400747005
0	650	32.5	0.04707400747005
0	652	32.6	0.04707400747005
0	654	32.7	0.04707400747005
0	656	32.8	0.04707400747005
0	658	32.9	0.04660326739535
0	658	32.9	0.04660326739535
0	659	32.981995093	0.04660326739535
0	660	33	0.04660326739535
0	662	33.1	0.04660326739535
0	664	33.2	0.04660326739535
0	666	33.3	0.04660326739535
0	668	33.4	0.04660326739535
0	669	33.465588598	0.04660326739535
0	670	33.5	0.04660326739535
0	672	33.6	0.04660326739535
0	674	33.7	0.04660326739535
0	676	33.8	0.04660326739535
0	677	33.871516447	0.04660326739535
0	678	33.9	0.04660326739535
0	680	34	0.04660326739535
0	682	34.1	0.04660326739535
0	683	34.164915835	0.04660326739535
0	684	34.2	0.046137234721396
0	684	34.2	0.046137234721396
0	686	34.3	0.046137234721396
0	688	34.4	0.046137234721396
0	689	34.455338014	0.046137234721396
0	690	34.5	0.046137234721396
0	692	34.6	0.046137234721396
0	694	34.7	0.046137234721396
0	696	34.8	0.046137234721396
0	698	34.9	0.046137234721396
0	699	34.978252351	0.046137234721396
0	700	35	0.046137234721396
0	702	35.1	0.046137234721396
0	704	35.2	0.046137234721396
0	706	35.3	0.046137234721396
0	708	35.4	0.046137234721396
0	709	35.487756379	0.046137234721396
0	710	35.5	0.046137234721396
0	712	35.6	0.045675862374182
0	712	35.6	0.045675862374182
0	714	35.7	0.045675862374182
0	716	35.8	0.045675862374182
0	718	35.9	0.045675862374182
0	720	36	0.045675862374182
0	721	36.003831598	0.045675862374182
0	722	36.1	0.045675862374182
0	724	36.2	0.045675862374182
0	726	36.3	0.045675862374182
0	728	36.4	0.045675862374182
0	730	36.5	0.045675862374182
0	731	36.554450329	0.045675862374182
0	732	36.6	0.045675862374182
0	734	36.7	0.045675862374182
0	736	36.8	0.045675862374182
0	738	36.9	0.045675862374182
0	740	37	0.045675862374182
0	741	37.06203322	0.04521910375044
0	741	37.06203322	0.04521910375044
0	742	37.1	0.04521910375044
0	744	37.2	0.04521910375044
0	746	37.3	0.04521910375044
0	748	37.4	0.04521910375044
0	750	37.5	0.04521910375044
0	752	37.6	0.04521910375044
0	754	37.7	0.04521910375044
0	755	37.781570251	0.04521910375044
0	756	37.8	0.04521910375044
0	758	37.9	0.04521910375044
0	760	38	0.04521910375044
0	762	38.1	0.04521910375044
0	764	38.2	0.04521910375044
0	766	38.3	0.04521910375044
0	767	38.338229464	0.04521910375044
0	768	38.4	0.04521910375044
0	770	38.5	0.044766912712936
0	770	38.5	0.044766912712936
0	772	38.6	0.044766912712936
0	774	38.7	0.044766912712936
0	775	38.783571772	0.044766912712936
0	776	38.8	0.044766912712936
0	778	38.9	0.044766912712936
0	780	39	0.044766912712936
0	782	39.1	0.044766912712936
0	784	39.2	0.044766912712936
0	786	39.3	0.044766912712936
0	787	39.375948793	0.044766912712936
0	788	39.4	0.044766912712936
0	790	39.5	0.044766912712936
0	792	39.6	0.044766912712936
0	794	39.7	0.044766912712936
0	796	39.8	0.044766912712936
0	798	39.9	0.044766912712936
0	799	39.930027499	0.044319243585806
0	799	39.930027499	0.044319243585806
0	800	40	0.044319243585806
0	802	40.1	0.044319243585806
0	804	40.2	0.044319243585806
0	806	40.3	0.044319243585806
0	808	40.4	0.044319243585806
0	809	40.418770615	0.044319243585806
0	810	40.5	0.044319243585806
0	812	40.6	0.044319243585806
0	814	40.7	0.044319243585806
0	816	40.8	0.044319243585806
0	817	40.865416813	0.044319243585806
0	818	40.9	0.044319243585806
0	820	41	0.044319243585806
0	822	41.1	0.044319243585806
0	824	41.2	0.044319243585806
0	826	41.3	0.044319243585806
0	828	41.4	0.043876051149948
0	828	41.4	0.043876051149948
0	829	41.417247136	0.043876051149948
0	830	41.5	0.043876051149948
0	832	41.6	0.043876051149948
0	834	41.7	0.043876051149948
0	836	41.8	0.043876051149948
0	838	41.9	0.043876051149948
0	839	41.919965101	0.043876051149948
0	840	42	0.043876051149948
0	842	42.1	0.043876051149948
0	844	42.2	0.043876051149948
0	846	42.3	0.043876051149948
0	848	42.4	0.043876051149948
0	849	42.411393169	0.043876051149948
0	850	42.5	0.043876051149948
0	852	42.6	0.043876051149948
0	854	42.7	0.043876051149948
0	856	42.8	0.043437290638449
0	856	42.8	0.043437290638449
0	858	42.9	0.043437290638449
0	859	42.950651638	0.043437290638449
0	860	43	0.043437290638449
0	862	43.1	0.043437290638449
0	864	43.2	0.043437290638449
0	866	43.3	0.043437290638449
0	868	43.4	0.043437290638449
0	869	43.410105187	0.043437290638449
0	870	43.5	0.043437290638449
0	872	43.6	0.043437290638449
0	874	43.7	0.043437290638449
0	876	43.8	0.043437290638449
0	877	43.899566491	0.043437290638449
0	878	43.9	0.043437290638449
0	880	44	0.043437290638449
0	882	44.1	0.043437290638449
0	884	44.2	0.043002917732064
0	884	44.2	0.043002917732064
0	886	44.3	0.043002917732064
0	888	44.4	0.043002917732064
0	890	44.5	0.043002917732064
0	891	44.514122215	0.043002917732064
0	892	44.6	0.043002917732064
0	894	44.7	0.043002917732064
0	896	44.8	0.043002917732064
0	898	44.9	0.043002917732064
0	899	44.999271202	0.043002917732064
0	900	45	0.043002917732064
0	902	45.1	0.043002917732064
0	904	45.2	0.043002917732064
0	905	45.290255173	0.043002917732064
0	906	45.3	0.043002917732064
0	908	45.4	0.043002917732064
0	910	45.5	0.043002917732064
0	912	45.6	0.042572888554744
0	912	45.6	0.042572888554744
0	914	45.7	0.042572888554744
0	916	45.8	0.042572888554744
0	917	45.857608183	0.042572888554744
0	918	45.9	0.042572888554744
0	920	46	0.042572888554744
0	922	46.1	0.042572888554744
0	924	46.2	0.042572888554744
0	926	46.3	0.042572888554744
0	928	46.4	0.042572888554744
0	929	46.44050176	0.042572888554744
0	930	46.5	0.042572888554744
0	932	46.6	0.042572888554744
0	934	46.7	0.042572888554744
0	936	46.8	0.042572888554744
0	938	46.9	0.042572888554744
0	940	46.980504982	0.042572888554744
0	941	47	0.042572888554744
0	943	47.1	0.042572888554744
0	945	47.2	0.042572888554744
0	947	47.3	0.042572888554744
0	949	47.4	0.042572888554744
0	950	47.468674024	0.042572888554744
0	951	47.5	0.042572888554744
0	953	47.6	0.042572888554744
0	955	47.7	0.042572888554744
0	957	47.8	0.042572888554744
0	959	47.9	0.042572888554744
0	960	47.965507039	0.042572888554744
0	961	48	0.042572888554744
0	963	48.1	0.042572888554744
0	965	48.2	0.042572888554744
0	967	48.3	0.042572888554744
0	969	48.4	0.042572888554744
0	970	48.456624124	0.042572888554744
0	971	48.5	0.042572888554744
0	973	48.6	0.042572888554744
0	975	48.7	0.042572888554744
0	977	48.8	0.042572888554744
0	979	48.9	0.042572888554744
0	980	48.943202761	0.042572888554744
0	981	49	0.042572888554744
0	983	49.1	0.042572888554744
0	985	49.2	0.042572888554744
0	987	49.3	0.042572888554744
0	989	49.4	0.042572888554744
0	990	49.461994762	0.042572888554744
0	991	49.5	0.042572888554744
0	993	49.6	0.042572888554744
0	995	49.7	0.042572888554744
0	997	49.8	0.042572888554744
0	999	49.9	0.042572888554744
0	1000	49.959469033	0.042572888554744
0	1001	50	0.042572888554744
0	1003	50.1	0.042572888554744
0	1005	50.2	0.042572888554744
0	1007	50.3	0.042572888554744
0	1009	50.4	0.042572888554744
0	1011	50.5	0.042572888554744
0	1013	50.6	0.042572888554744
0	1014	50.626878559	0.042572888554744
0	1016	50.7	0.042572888554744
0	1018	50.8	0.042572888554744
0	1020	50.9	0.042572888554744
0	1022	51	0.042572888554744
0	1024	51.1	0.042572888554744
0	1026	51.2	0.042572888554744
0	1027	51.294565462	0.042147159669196
0	1027	51.294565462	0.042147159669196
0	1028	51.3	0.042147159669196
0	1030	51.4	0.042147159669196
0	1032	51.5	0.042147159669196
0	1034	51.6	0.042147159669196
0	1036	51.7	0.042147159669196
0	1038	51.8	0.042147159669196
0	1040	51.9	0.042147159669196
0	1042	52	0.042147159669196
0	1042	52.003394068	0.042147159669196
0	1044	52.1	0.042147159669196
0	1046	52.2	0.042147159669196
0	1048	52.3	0.042147159669196
0	1050	52.4	0.042147159669196
0	1052	52.5	0.042147159669196
0	1052	52.522785991	0.042147159669196
0	1054	52.6	0.042147159669196
0	1056	52.7	0.041725688072504
0	1056	52.7	0.041725688072504
0	1058	52.8	0.041725688072504
0	1060	52.9	0.041725688072504
0	1062	53	0.041725688072504
0	1064	53.1	0.041725688072504
0	1065	53.196290245	0.041725688072504
0	1066	53.2	0.041725688072504
0	1068	53.3	0.041725688072504
0	1070	53.4	0.041725688072504
0	1072	53.5	0.041725688072504
0	1074	53.6	0.041725688072504
0	1076	53.7	0.041725688072504
0	1076	53.704544743	0.041725688072504
0	1078	53.8	0.041725688072504
0	1080	53.9	0.041725688072504
0	1082	54	0.041725688072504
0	1084	54.1	0.041725688072504
0	1085	54.185886157	0.041308431191779
0	1085	54.185886157	0.041308431191779
0	1086	54.2	0.041308431191779
0	1088	54.3	0.041308431191779
0	1090	54.4	0.041308431191779
0	1092	54.5	0.041308431191779
0	1094	54.6	0.041308431191779
0	1096	54.7	0.041308431191779
0	1098	54.8	0.041308431191779
0	1098	54.836273704	0.041308431191779
0	1100	54.9	0.041308431191779
0	1102	55	0.041308431191779
0	1104	55.1	0.041308431191779
0	1106	55.2	0.041308431191779
0	1108	55.3	0.041308431191779
0	1110	55.4	0.041308431191779
0	1112	55.5	0.041308431191779
0	1112	55.577026648	0.041308431191779
0	1114	55.6	0.040895346879862
0	1114	55.6	0.040895346879862
0	1116	55.7	0.040895346879862
0	1118	55.8	0.040895346879862
0	1120	55.9	0.040895346879862
0	1122	56	0.040895346879862
0	1124	56.1	0.040895346879862
0	1126	56.2	0.040895346879862
0	1126	56.258648602	0.040895346879862
0	1128	56.3	0.040895346879862
0	1130	56.4	0.040895346879862
0	1132	56.5	0.040895346879862
0	1134	56.6	0.040895346879862
0	1136	56.7	0.040895346879862
0	1136	56.761741387	0.040895346879862
0	1137	56.769634267061	0.040895346879862
0	1139	56.869634267061	0.040895346879862
0	1141	56.969634267061	0.040895346879862
0	1143	57.069634267061	0.040895346879862
0	1145	57.169634267061	0.040895346879862
0	1147	57.269634267061	0.040895346879862
0	1148	57.285655429	0.040895346879862
0	1149	57.369634267061	0.040895346879862
0	1151	57.469634267061	0.040895346879862
0	1153	57.569634267061	0.040895346879862
0	1155	57.669634267061	0.040895346879862
0	1157	57.769634267061	0.040895346879862
0	1159	57.869634267061	0.040895346879862
0	1160	57.955438462	0.040895346879862
0	1161	57.969634267061	0.040895346879862
0	1163	58.069634267061	0.040895346879862
0	1165	58.169634267061	0.040895346879862
0	1167	58.269634267061	0.040895346879862
0	1169	58.369634267061	0.040895346879862
0	1171	58.469634267061	0.040895346879862
0	1173	58.569634267061	0.040895346879862
0	1175	58.669634267061	0.040895346879862
0	1176	58.762655872	0.040895346879862
0	1177	58.769634267061	0.040895346879862
0	1179	58.869634267061	0.040895346879862
0	1181	58.969634267061	0.040895346879862
0	1183	59.069634267061	0.040895346879862
0	1185	59.169634267061	0.040895346879862
0	1187	59.269634267061	0.040895346879862
0	1189	59.369634267061	0.040895346879862
0	1191	59.469634267061	0.040895346879862
0	1191	59.481840916	0.040895346879862
0	1193	59.569634267061	0.040895346879862
0	1195	59.669634267061	0.040895346879862
0	1197	59.769634267061	0.040895346879862
0	1199	59.869634267061	0.040895346879862
0	1201	59.969634267061	0.040895346879862
0	1203	60.069634267061	0.040895346879862
0	1205	60.169634267061	0.040895346879862
0	1206	60.261077926	0.040895346879862
0	1207	60.269634267061	0.040895346879862
0	1209	60.369634267061	0.040895346879862
0	1211	60.469634267061	0.040895346879862
0	1213	60.569634267061	0.040895346879862
0	1215	60.669634267061	0.040895346879862
0	1217	60.769634267061	0.040895346879862
0	1219	60.869634267061	0.040895346879862
0	1220	60.893590351	0.040895346879862
0	1221	60.969634267061	0.040895346879862
0	1223	61.069634267061	0.040895346879862
0	1225	61.169634267061	0.040895346879862
0	1227	61.269634267061	0.040895346879862
0	1229	61.369634267061	0.040895346879862
0	1230	61.40732305	0.040895346879862
0	1231	61.469634267061	0.040895346879862
0	1233	61.569634267061	0.040895346879862
0	1235	61.669634267061	0.040895346879862
0	1237	61.769634267061	0.040895346879862
0	1239	61.869634267061	0.040895346879862
0	1240	61.891620808	0.040895346879862
0	1241	61.969634267061	0.040895346879862
0	1243	62.069634267061	0.040895346879862
0	1245	62.169634267061	0.040895346879862
0	1247	62.269634267061	0.040895346879862
0	1248	62.342740282	0.040895346879862
0	1249	62.369634267061	0.040895346879862
0	1251	62.469634267061	0.040895346879862
0	1253	62.569634267061	0.040895346879862
0	1255	62.669634267061	0.040895346879862
0	1257	62.769634267061	0.040895346879862
0	1259	62.869634267061	0.040895346879862
0	1261	62.969634267061	0.040895346879862
0	1262	63.01396093	0.040895346879862
0	1263	63.069634267061	0.040895346879862
0	1265	63.169634267061	0.040895346879862
0	1267	63.269634267061	0.040895346879862
0	1269	63.369634267061	0.040895346879862
0	1271	63.469634267061	0.040895346879862
0	1273	63.569634267061	0.040895346879862
0	1275	63.669634267061	0.040895346879862
0	1276	63.737697226	0.040895346879862
0	1277	63.769634267061	0.040895346879862
0	1279	63.869634267061	0.040895346879862
0	1281	63.969634267061	0.040895346879862
0	1283	64.069634267061	0.040895346879862
0	1285	64.169634267061	0.040895346879862
0	1287	64.269634267061	0.040895346879862
0	1288	64.367711932	0.040895346879862
0	1289	64.369634267061	0.040895346879862
0	1291	64.469634267061	0.040895346879862
0	1293	64.569634267061	0.040895346879862
0	1295	64.669634267061	0.040895346879862
0	1297	64.769634267061	0.040895346879862
0	1299	64.869634267061	0.040895346879862
0	1300	64.907246647	0.040895346879862
0	1301	64.969634267061	0.040895346879862
0	1303	65.069634267061	0.040895346879862
0	1305	65.169634267061	0.040895346879862
0	1307	65.269634267061	0.040895346879862
0	1309	65.369634267061	0.040895346879862
0	1310	65.424889504	0.040895346879862
0	1311	65.469634267061	0.040895346879862
0	1313	65.569634267061	0.040895346879862
0	1315	65.669634267061	0.040895346879862
0	1317	65.769634267061	0.040895346879862
0	1319	65.869634267061	0.040895346879862
0	1321	65.969634267061	0.040895346879862
0	1323	66.069634267061	0.040895346879862
0	1325	66.169634267061	0.040895346879862
0	1326	66.187341556	0.040895346879862
0	1327	66.269634267061	0.040895346879862
0	1329	66.369634267061	0.040895346879862
0	1331	66.469634267061	0.040895346879862
0	1333	66.569634267061	0.040895346879862
0	1335	66.669634267061	0.040895346879862
0	1337	66.769634267061	0.040895346879862
0	1338	66.808522153	0.040895346879862
0	1339	66.869634267061	0.040895346879862
0	1341	66.969634267061	0.040895346879862
0	1343	67.069634267061	0.040895346879862
0	1345	67.169634267061	0.040895346879862
0	1347	67.269634267061	0.040895346879862
0	1349	67.369634267061	0.040895346879862
0	1351	67.469634267061	0.040895346879862
0	1352	67.500428797	0.040895346879862
0	1353	67.569634267061	0.040895346879862
0	1355	67.669634267061	0.040895346879862
0	1357	67.769634267061	0.040895346879862
0	1359	67.869634267061	0.040895346879862
0	1361	67.969634267061	0.040895346879862
0	1363	68.069634267061	0.040895346879862
0	1365	68.169634267061	0.040895346879862
0	1366	68.260166293	0.040895346879862
0	1367	68.269634267061	0.040895346879862
0	1369	68.369634267061	0.040895346879862
0	1371	68.469634267061	0.040895346879862
0	1373	68.569634267061	0.040895346879862
0	1375	68.669634267061	0.040895346879862
0	1377	68.769634267061	0.040895346879862
0	1379	68.869634267061	0.040895346879862
0	1380	68.912760961	0.040895346879862
0	1381	68.969634267061	0.040895346879862
0	1383	69.069634267061	0.040895346879862
0	1385	69.169634267061	0.040895346879862
0	1387	69.269634267061	0.040895346879862
0	1389	69.369634267061	0.040895346879862
0	1391	69.469634267061	0.040895346879862
0	1393	69.569634267061	0.040895346879862
0	1395	69.669634267061	0.040895346879862
0	1396	69.763783321	0.040895346879862
0	1397	69.769634267061	0.040895346879862
0	1399	69.869634267061	0.040895346879862
0	1401	69.969634267061	0.040895346879862
0	1403	70.069634267061	0.040895346879862
0	1405	70.169634267061	0.040895346879862
0	1407	70.269634267061	0.040895346879862
0	1409	70.369634267061	0.040895346879862
0	1410	70.3871215	0.040895346879862
0	1411	70.469634267061	0.040895346879862
0	1413	70.569634267061	0.040895346879862
0	1415	70.669634267061	0.040895346879862
0	1417	70.769634267061	0.040895346879862
0	1419	70.869634267061	0.040895346879862
0	1421	70.969634267061	0.040895346879862
0	1422	71.043662266	0.040895346879862
0	1423	71.069634267061	0.040895346879862
0	1425	71.169634267061	0.040895346879862
0	1427	71.269634267061	0.040895346879862
0	1429	71.369634267061	0.040895346879862
0	1431	71.469634267061	0.040895346879862
0	1435	71.569634267061	0.040895346879862
0	1436	71.640845812	0.040895346879862
0	1437	71.669634267061	0.040895346879862
0	1440	71.769634267061	0.040895346879862
0	1443	71.869634267061	0.040895346879862
0	1446	71.969634267061	0.040895346879862
0	1449	72.069634267061	0.040895346879862
0	1451	72.169634267061	0.040895346879862
0	1451	72.183305272	0.040895346879862
0	1454	72.269634267061	0.040895346879862
0	1457	72.369634267061	0.040895346879862
0	1460	72.469634267061	0.040895346879862
0	1463	72.569634267061	0.040895346879862
0	1465	72.669634267061	0.040895346879862
0	1465	72.676203073	0.040895346879862
0	1468	72.769634267061	0.040486393411063
0	1468	72.769634267061	0.040486393411063
0	1471	72.869634267061	0.040486393411063
0	1474	72.969634267061	0.040486393411063
0	1477	73.069634267061	0.040486393411063
0	1479	73.169634267061	0.040486393411063
0	1479	73.179121597	0.040486393411063
0	1481	73.269634267061	0.040486393411063
0	1483	73.369634267061	0.040486393411063
0	1485	73.469634267061	0.040486393411063
0	1487	73.569634267061	0.040486393411063
0	1488	73.628665396	0.040486393411063
0	1489	73.669634267061	0.040486393411063
0	1491	73.769634267061	0.040486393411063
0	1493	73.869634267061	0.040486393411063
0	1495	73.969634267061	0.040486393411063
0	1497	74.069634267061	0.040486393411063
0	1498	74.094870214	0.040486393411063
0	1499	74.169634267061	0.040486393411063
0	1501	74.269634267061	0.040486393411063
0	1503	74.369634267061	0.040486393411063
0	1505	74.469634267061	0.040486393411063
0	1507	74.569634267061	0.040486393411063
0	1509	74.669634267061	0.040486393411063
0	1509	74.673556753	0.040486393411063
0	1511	74.769634267061	0.040486393411063
0	1513	74.869634267061	0.040486393411063
0	1515	74.969634267061	0.040486393411063
0	1517	75.069634267061	0.040486393411063
0	1517	75.070179844	0.040486393411063
0	1519	75.169634267061	0.040486393411063
0	1521	75.269634267061	0.040486393411063
0	1523	75.369634267061	0.040486393411063
0	1525	75.469634267061	0.040486393411063
0	1526	75.540642034	0.040486393411063
0	1527	75.569634267061	0.040486393411063
0	1529	75.669634267061	0.040486393411063
0	1531	75.769634267061	0.040486393411063
0	1533	75.869634267061	0.040486393411063
0	1535	75.969634267061	0.040486393411063
0	1537	76.069634267061	0.040486393411063
0	1538	76.166420194	0.040486393411063
0	1539	76.169634267061	0.040486393411063
0	1541	76.269634267061	0.040486393411063
0	1543	76.369634267061	0.040486393411063
0	1545	76.469634267061	0.040486393411063
0	1547	76.569634267061	0.040486393411063
0	1549	76.669634267061	0.040486393411063
0	1550	76.719054952	0.040486393411063
0	1551	76.769634267061	0.040486393411063
0	1553	76.869634267061	0.040486393411063
0	1555	76.969634267061	0.040486393411063
0	1557	77.069634267061	0.040486393411063
0	1559	77.169634267061	0.040486393411063
0	1560	77.196769216	0.040486393411063
0	1561	77.269634267061	0.040486393411063
0	1563	77.369634267061	0.040486393411063
0	1565	77.469634267061	0.040486393411063
0	1567	77.569634267061	0.040486393411063
0	1569	77.669634267061	0.040486393411063
0	1570	77.726574322	0.040486393411063
0	1571	77.769634267061	0.040486393411063
0	1573	77.869634267061	0.040486393411063
0	1575	77.969634267061	0.040486393411063
0	1577	78.069634267061	0.040486393411063
0	1579	78.169634267061	0.040486393411063
0	1580	78.237204241	0.040486393411063
0	1581	78.269634267061	0.040486393411063
0	1583	78.369634267061	0.040486393411063
0	1585	78.469634267061	0.040486393411063
0	1587	78.569634267061	0.040486393411063
0	1589	78.669634267061	0.040486393411063
0	1591	78.769634267061	0.040486393411063
0	1593	78.869634267061	0.040486393411063
0	1594	78.938226682	0.040486393411063
0	1595	78.969634267061	0.040486393411063
0	1597	79.069634267061	0.040486393411063
0	1599	79.169634267061	0.040486393411063
0	1601	79.269634267061	0.040486393411063
0	1603	79.369634267061	0.040486393411063
0	1605	79.469634267061	0.040486393411063
0	1607	79.569634267061	0.040486393411063
0	1609	79.669634267061	0.040486393411063
0	1609	79.681613872	0.040486393411063
0	1611	79.769634267061	0.040486393411063
0	1613	79.869634267061	0.040486393411063
0	1615	79.969634267061	0.040486393411063
0	1617	80.069634267061	0.040486393411063
0	1619	80.169634267061	0.040486393411063
0	1620	80.209568737	0.040486393411063
0	1621	80.269634267061	0.040486393411063
0	1623	80.369634267061	0.040486393411063
0	1625	80.469634267061	0.040486393411063
0	1627	80.569634267061	0.040486393411063
0	1629	80.669634267061	0.040486393411063
0	1629	80.677244128	0.040486393411063
0	1631	80.769634267061	0.040486393411063
0	1633	80.869634267061	0.040486393411063
0	1635	80.969634267061	0.040486393411063
0	1637	81.069634267061	0.040486393411063
0	1638	81.10793227	0.040486393411063
0	1639	81.169634267061	0.040486393411063
0	1641	81.269634267061	0.040486393411063
0	1643	81.369634267061	0.040486393411063
0	1645	81.469634267061	0.040486393411063
0	1647	81.569634267061	0.040486393411063
0	1649	81.669634267061	0.040486393411063
0	1649	81.677141665	0.040486393411063
0	1651	81.769634267061	0.040486393411063
0	1653	81.869634267061	0.040486393411063
0	1655	81.969634267061	0.040486393411063
0	1657	82.069634267061	0.040486393411063
0	1658	82.103708404	0.040486393411063
0	1659	82.169634267061	0.040486393411063
0	1661	82.269634267061	0.040486393411063
0	1663	82.369634267061	0.040486393411063
0	1665	82.469634267061	0.040486393411063
0	1667	82.569634267061	0.040486393411063
0	1668	82.664074462	0.040486393411063
0	1669	82.669634267061	0.040486393411063
0	1671	82.769634267061	0.040486393411063
0	1673	82.869634267061	0.040486393411063
0	1675	82.969634267061	0.040486393411063
0	1677	83.069634267061	0.040486393411063
0	1679	83.169634267061	0.040486393411063
0	1680	83.224813849	0.040486393411063
0	1681	83.269634267061	0.040486393411063
0	1683	83.369634267061	0.040486393411063
0	1685	83.469634267061	0.040486393411063
0	1687	83.569634267061	0.040486393411063
0	1688	83.631089971	0.040486393411063
0	1689	83.669634267061	0.040486393411063
0	1691	83.769634267061	0.040486393411063
0	1693	83.869634267061	0.040486393411063
0	1695	83.969634267061	0.040486393411063
0	1697	84.069634267061	0.040486393411063
0	1698	84.164571622	0.040486393411063
0	1699	84.169634267061	0.040486393411063
0	1701	84.269634267061	0.040486393411063
0	1703	84.369634267061	0.040486393411063
0	1705	84.469634267061	0.040486393411063
0	1707	84.569634267061	0.040486393411063
0	1709	84.669634267061	0.040486393411063
0	1710	84.697851028	0.040486393411063
0	1711	84.769634267061	0.040486393411063
0	1713	84.869634267061	0.040486393411063
0	1715	84.969634267061	0.040486393411063
0	1717	85.069634267061	0.040486393411063
0	1719	85.169634267061	0.040486393411063
0	1720	85.227870058	0.040486393411063
0	1721	85.269634267061	0.040486393411063
0	1723	85.369634267061	0.040486393411063
0	1725	85.469634267061	0.040486393411063
0	1727	85.569634267061	0.040486393411063
0	1729	85.669634267061	0.040486393411063
0	1731	85.769634267061	0.040486393411063
0	1732	85.81932181	0.040486393411063
0	1733	85.869634267061	0.040486393411063
0	1735	85.969634267061	0.040486393411063
0	1737	86.069634267061	0.040486393411063
0	1739	86.169634267061	0.040486393411063
0	1741	86.269634267061	0.040486393411063
0	1743	86.369634267061	0.040486393411063
0	1744	86.44107781	0.040486393411063
0	1745	86.469634267061	0.040486393411063
0	1747	86.569634267061	0.040486393411063
0	1749	86.669634267061	0.040486393411063
0	1751	86.769634267061	0.040486393411063
0	1753	86.869634267061	0.040486393411063
0	1754	86.924854225	0.040486393411063
0	1755	86.969634267061	0.040486393411063
0	1757	87.069634267061	0.040486393411063
0	1759	87.169634267061	0.040486393411063
0	1761	87.269634267061	0.040486393411063
0	1763	87.369634267061	0.040486393411063
0	1764	87.434268304	0.040486393411063
0	1765	87.469634267061	0.040486393411063
0	1767	87.569634267061	0.040486393411063
0	1769	87.669634267061	0.040486393411063
0	1771	87.769634267061	0.040486393411063
0	1773	87.869634267061	0.040486393411063
0	1774	87.952811824	0.040486393411063
0	1775	87.969634267061	0.040486393411063
0	1777	88.069634267061	0.040486393411063
0	1779	88.169634267061	0.040486393411063
0	1781	88.269634267061	0.040486393411063
0	1783	88.369634267061	0.040486393411063
0	1785	88.469634267061	0.040486393411063
0	1787	88.569634267061	0.040486393411063
0	1788	88.658618575	0.040486393411063
0	1789	88.669634267061	0.040486393411063
0	1791	88.769634267061	0.040486393411063
0	1793	88.869634267061	0.040486393411063
0	1795	88.969634267061	0.040486393411063
0	1797	89.069634267061	0.040486393411063
0	1799	89.169634267061	0.040486393411063
0	1801	89.269634267061	0.040486393411063
0	1803	89.369634267061	0.040486393411063
0	1803	89.382429283	0.040486393411063
0	1805	89.469634267061	0.040486393411063
0	1807	89.569634267061	0.040486393411063
0	1809	89.669634267061	0.040486393411063
0	1811	89.769634267061	0.040486393411063
0	1813	89.869634267061	0.040486393411063
0	1813	89.873138467	0.040081529476952
0	1813	89.873138467	0.040081529476952
0	1815	89.969634267061	0.040081529476952
0	1817	90.069634267061	0.040081529476952
0	1818	90.1683523	0.040081529476952
0	1819	90.169634267061	0.040081529476952
0	1821	90.269634267061	0.040081529476952
0	1823	90.369634267061	0.040081529476952
0	1825	90.469634267061	0.040081529476952
0	1827	90.569634267061	0.040081529476952
0	1829	90.669634267061	0.040081529476952
0	1830	90.741898948	0.040081529476952
0	1831	90.769634267061	0.040081529476952
0	1833	90.869634267061	0.040081529476952
0	1835	90.969634267061	0.040081529476952
0	1837	91.069634267061	0.040081529476952
0	1839	91.169634267061	0.040081529476952
0	1841	91.269634267061	0.040081529476952
0	1841	91.276088674	0.039680714182183
0	1841	91.276088674	0.039680714182183
0	1843	91.369634267061	0.039680714182183
0	1845	91.469634267061	0.039680714182183
0	1847	91.569634267061	0.039680714182183
0	1849	91.669634267061	0.039680714182183
0	1851	91.769634267061	0.039680714182183
0	1853	91.869634267061	0.039680714182183
0	1854	91.956285994	0.039680714182183
0	1855	91.969634267061	0.039680714182183
0	1857	92.069634267061	0.039680714182183
0	1859	92.169634267061	0.039680714182183
0	1861	92.269634267061	0.039680714182183
0	1863	92.369634267061	0.039680714182183
0	1865	92.469634267061	0.039680714182183
0	1867	92.569634267061	0.039680714182183
0	1868	92.601044041	0.039680714182183
0	1869	92.669634267061	0.039680714182183
0	1871	92.769634267061	0.039680714182183
0	1873	92.869634267061	0.039680714182183
0	1875	92.969634267061	0.039680714182183
0	1876	93.061195438	0.039680714182183
0	1877	93.069634267061	0.039680714182183
0	1879	93.169634267061	0.039680714182183
0	1881	93.269634267061	0.039680714182183
0	1883	93.369634267061	0.039680714182183
0	1885	93.469634267061	0.039680714182183
0	1886	93.485700553	0.039680714182183
0	1887	93.569634267061	0.039680714182183
0	1890	93.669634267061	0.039680714182183
0	1892	93.769634267061	0.039680714182183
0	1894	93.869634267061	0.039680714182183
0	1896	93.969634267061	0.039680714182183
0	1897	94.014806497	0.039680714182183
0	1898	94.069634267061	0.039283907040361
0	1898	94.069634267061	0.039283907040361
0	1900	94.169634267061	0.039283907040361
0	1902	94.269634267061	0.039283907040361
0	1904	94.369634267061	0.039283907040361
0	1906	94.469634267061	0.039283907040361
0	1908	94.569634267061	0.039283907040361
0	1909	94.637537809	0.039283907040361
0	1910	94.669634267061	0.039283907040361
0	1912	94.769634267061	0.039283907040361
0	1914	94.869634267061	0.039283907040361
0	1916	94.969634267061	0.039283907040361
0	1918	95.069634267061	0.039283907040361
0	1920	95.169634267061	0.039283907040361
0	1920	95.176087102	0.039283907040361
0	1922	95.269634267061	0.039283907040361
0	1924	95.369634267061	0.039283907040361
0	1926	95.469634267061	0.039283907040361
0	1928	95.569634267061	0.038891067969957
0	1928	95.569634267061	0.038891067969957
0	1929	95.663923093	0.038891067969957
0	1930	95.669634267061	0.038891067969957
0	1932	95.769634267061	0.038891067969957
0	1934	95.869634267061	0.038891067969957
0	1936	95.969634267061	0.038891067969957
0	1938	96.069634267061	0.038891067969957
0	1940	96.169634267061	0.038891067969957
0	1941	96.205410649	0.038891067969957
0	1942	96.269634267061	0.038891067969957
0	1944	96.369634267061	0.038891067969957
0	1946	96.469634267061	0.038891067969957
0	1948	96.569634267061	0.038891067969957
0	1950	96.669634267061	0.038891067969957
0	1952	96.769634267061	0.038891067969957
0	1953	96.792351205	0.038891067969957
0	1954	96.869634267061	0.038891067969957
0	1956	96.969634267061	0.038502157290258
0	1956	96.969634267061	0.038502157290258
0	1958	97.069634267061	0.038502157290258
0	1960	97.169634267061	0.038502157290258
0	1962	97.269634267061	0.038502157290258
0	1963	97.299689875	0.038502157290258
0	1964	97.369634267061	0.038502157290258
0	1966	97.469634267061	0.038502157290258
0	1968	97.569634267061	0.038502157290258
0	1970	97.669634267061	0.038502157290258
0	1972	97.769634267061	0.038502157290258
0	1974	97.869634267061	0.038502157290258
0	1976	97.969634267061	0.038502157290258
0	1976	97.973923108	0.038502157290258
0	1978	98.069634267061	0.038502157290258
0	1980	98.169634267061	0.038502157290258
0	1982	98.269634267061	0.038502157290258
0	1984	98.369634267061	0.038502157290258
0	1986	98.469634267061	0.038117135717355
0	1986	98.469634267061	0.038117135717355
0	1988	98.569634267061	0.038117135717355
0	1989	98.654005441	0.038117135717355
0	1990	98.669634267061	0.038117135717355
0	1992	98.769634267061	0.038117135717355
0	1994	98.869634267061	0.038117135717355
0	1996	98.969634267061	0.038117135717355
0	1998	99.069634267061	0.038117135717355
0	2000	99.169634267061	0.038117135717355
0	2002	99.269634267061	0.038117135717355
0	2003	99.343876177	0.038117135717355
0	2004	99.369634267061	0.038117135717355
0	2006	99.469634267061	0.038117135717355
0	2008	99.569634267061	0.038117135717355
0	2010	99.669634267061	0.038117135717355
0	2012	99.769634267061	0.038117135717355
0	2014	99.869634267061	0.038117135717355
0	2017	99.969634267061	0.038117135717355
0	2017	99.995794951	0.038117135717355
0	2019	100.069634267061	0.038117135717355
0	2021	100.169634267061	0.038117135717355
0	2023	100.269634267061	0.038117135717355
0	2025	100.369634267061	0.038117135717355
0	2027	100.469634267061	0.038117135717355
0	2028	100.548761395	0.038117135717355
0	2029	100.569634267061	0.038117135717355
0	2031	100.669634267061	0.038117135717355
0	2033	100.769634267061	0.038117135717355
0	2035	100.869634267061	0.038117135717355
0	2037	100.969634267061	0.038117135717355
0	2039	101.069634267061	0.038117135717355
0	2039	101.086818913	0.038117135717355
0	2041	101.169634267061	0.038117135717355
0	2043	101.269634267061	0.038117135717355
0	2045	101.369634267061	0.038117135717355
0	2047	101.469634267061	0.038117135717355
0	2049	101.569634267061	0.038117135717355
0	2049	101.619642145	0.038117135717355
0	2051	101.669634267061	0.038117135717355
0	2053	101.769634267061	0.038117135717355
0	2055	101.869634267061	0.038117135717355
0	2057	101.969634267061	0.038117135717355
0	2059	102.069634267061	0.038117135717355
0	2059	102.082588639	0.038117135717355
0	2061	102.169634267061	0.038117135717355
0	2063	102.269634267061	0.038117135717355
0	2065	102.369634267061	0.038117135717355
0	2067	102.469634267061	0.038117135717355
0	2067	102.505567399	0.038117135717355
0	2069	102.569634267061	0.038117135717355
0	2071	102.669634267061	0.038117135717355
0	2073	102.769634267061	0.038117135717355
0	2075	102.869634267061	0.038117135717355
0	2077	102.969634267061	0.038117135717355
0	2077	103.011775873	0.038117135717355
0	2079	103.069634267061	0.038117135717355
0	2081	103.169634267061	0.038117135717355
0	2083	103.269634267061	0.038117135717355
0	2085	103.369634267061	0.038117135717355
0	2087	103.469634267061	0.038117135717355
0	2087	103.517226724	0.038117135717355
0	2089	103.569634267061	0.038117135717355
0	2091	103.669634267061	0.038117135717355
0	2093	103.769634267061	0.038117135717355
0	2095	103.869634267061	0.038117135717355
0	2097	103.969634267061	0.038117135717355
0	2099	104.069634267061	0.038117135717355
0	2100	104.079652459291	0.038117135717355
0	2102	104.169634267061	0.038092292318951
0	2102	104.169634267061	0.038092292318951
0	2103	104.175368529952	0.0385
0	2103	104.177220166	0.038507406544192
0	2105	104.269634267061	0.038877062948436
0	2106	104.300368529952	0.039
0	2108	104.369634267061	0.039277062948436
0	2109	104.425368529952	0.0395
0	2111	104.469634267061	0.039677062948436
0	2113	104.550368529952	0.04
0	2114	104.569634267061	0.040077062948436
0	2116	104.669634267061	0.040477062948436
0	2117	104.675368529952	0.0405
0	2119	104.769634267061	0.040877062948436
0	2120	104.800368529952	0.041
0	2122	104.869634267061	0.041277062948436
0	2123	104.925368529952	0.0415
0	2124	104.950489501	0.041600483884192
0	2125	104.969634267061	0.041677062948436
0	2127	105.050368529952	0.042
0	2128	105.069634267061	0.042077062948436
0	2130	105.169634267061	0.042477062948436
0	2131	105.175368529952	0.0425
0	2133	105.269634267061	0.042877062948436
0	2134	105.300368529952	0.043
0	2136	105.369634267061	0.043277062948436
0	2137	105.425368529952	0.0435
0	2139	105.469634267061	0.043677062948436
0	2141	105.550368529952	0.044
0	2142	105.569634267061	0.044077062948436
0	2144	105.669634267061	0.044477062948436
0	2145	105.675368529952	0.0445
0	2145	105.69159856	0.044564920120192
0	2147	105.769634267061	0.044877062948436
0	2148	105.800368529952	0.045
0	2150	105.869634267061	0.045277062948436
0	2151	105.925368529952	0.0455
0	2153	105.969634267061	0.045677062948436
0	2155	106.050368529952	0.046
0	2156	106.069634267061	0.046077062948436
0	2158	106.169634267061	0.046477062948436
0	2159	106.175368529952	0.0465
0	2160	106.239378148	0.046756038472192
0	2161	106.269634267061	0.046877062948436
0	2162	106.300368529952	0.04653
0	2162	106.300368529952	0.04653
0	2164	106.369634267061	0.046807062948436
0	2165	106.417868529952	0.047
0	2167	106.469634267061	0.047207062948436
0	2169	106.542868529952	0.0475
0	2170	106.569634267061	0.047607062948436
0	2172	106.667868529952	0.048
0	2173	106.669634267061	0.048007062948436
0	2175	106.769634267061	0.048407062948436
0	2176	106.792868529952	0.0485
0	2176	106.820380342	0.048610047248192
0	2178	106.869634267061	0.048807062948436
0	2179	106.917868529952	0.049
0	2181	106.969634267061	0.049207062948436
0	2183	107.042868529952	0.0495
0	2184	107.069634267061	0.049607062948436
0	2186	107.167868529952	0.05
0	2187	107.169634267061	0.05
0	2190	107.269634267061	0.05
0	2191	107.367902038	0.05
0	2192	107.369634267061	0.0495
0	2192	107.369634267061	0.0495
0	2194	107.469634267061	0.0499
0	2196	107.569634267061	0.05
0	2198	107.669634267061	0.05
0	2200	107.769634267061	0.05
0	2200	107.800044907	0.05
0	2202	107.869634267061	0.05
0	2204	107.969634267061	0.05
0	2206	108.069634267061	0.05
0	2208	108.169634267061	0.05
0	2210	108.269634267061	0.05
0	2212	108.369634267061	0.05
0	2212	108.376920568	0.05
0	2214	108.469634267061	0.05
0	2216	108.569634267061	0.05
0	2218	108.669634267061	0.05
0	2220	108.769634267061	0.05
0	2222	108.869634267061	0.0495
0	2222	108.869634267061	0.0495
0	2222	108.927981265	0.049733387991756
0	2224	108.969634267061	0.0499
0	2226	109.069634267061	0.05
0	2228	109.169634267061	0.05
0	2230	109.269634267061	0.05
0	2232	109.369634267061	0.05
0	2232	109.442162119	0.05
0	2234	109.469634267061	0.05
0	2236	109.569634267061	0.05
0	2238	109.669634267061	0.05
0	2240	109.769634267061	0.05
0	2242	109.869634267061	0.05
0	2242	109.936667674	0.05
0	2244	109.969634267061	0.05
0	2246	110.069634267061	0.05
0	2248	110.169634267061	0.05
0	2250	110.269634267061	0.0495
0	2250	110.269634267061	0.0495
0	2252	110.369634267061	0.0499
0	2254	110.469634267061	0.05
0	2254	110.496040054	0.05
0	2256	110.569634267061	0.05
0	2258	110.669634267061	0.05
0	2260	110.769634267061	0.05
0	2262	110.869634267061	0.05
0	2264	110.969634267061	0.05
0	2266	111.069634267061	0.05
0	2267	111.165834895	0.05
0	2268	111.169634267061	0.05
0	2270	111.269634267061	0.05
0	2272	111.369634267061	0.05
0	2274	111.469634267061	0.05
0	2276	111.569634267061	0.05
0	2278	111.669634267061	0.05
0	2280	111.769634267061	0.0495
0	2280	111.769634267061	0.0495
0	2282	111.869634267061	0.0499
0	2282	111.902237104	0.05
0	2284	111.969634267061	0.05
0	2286	112.069634267061	0.05
0	2288	112.169634267061	0.05
0	2290	112.269634267061	0.05
0	2292	112.369634267061	0.05
0	2294	112.469634267061	0.05
0	2296	112.569634267061	0.05
0	2296	112.63665199	0.05
0	2298	112.669634267061	0.05
0	2300	112.769634267061	0.05
0	2302	112.869634267061	0.05
0	2304	112.969634267061	0.05
0	2306	113.069634267061	0.05
0	2308	113.169634267061	0.05
0	2310	113.269634267061	0.0495
0	2310	113.269634267061	0.0495
0	2310	113.328212365	0.049734312391756
0	2312	113.369634267061	0.0499
0	2314	113.469634267061	0.05
0	2316	113.569634267061	0.05
0	2318	113.669634267061	0.05
0	2320	113.769634267061	0.05
0	2320	113.771018509	0.05
0	2322	113.869634267061	0.05
0	2324	113.969634267061	0.05
0	2326	114.069634267061	0.05
0	2328	114.169634267061	0.05
0	2328	114.224114866	0.05
0	2330	114.269634267061	0.05
0	2332	114.369634267061	0.05
0	2334	114.469634267061	0.05
0	2336	114.569634267061	0.05
0	2338	114.669634267061	0.0495
0	2338	114.669634267061	0.0495
0	2338	114.712421266	0.049671147995756
0	2340	114.769634267061	0.0499
0	2342	114.869634267061	0.05
0	2344	114.969634267061	0.05
0	2346	115.069634267061	0.05
0	2348	115.169634267061	0.05
0	2350	115.269634267061	0.05
0	2350	115.27748752	0.05
0	2352	115.369634267061	0.05
0	2354	115.469634267061	0.05
0	2356	115.569634267061	0.05
0	2358	115.669634267061	0.05
0	2360	115.769634267061	0.05
0	2360	115.779492973	0.05
0	2362	115.869634267061	0.05
0	2364	115.969634267061	0.05
0	2366	116.069634267061	0.0495
0	2366	116.069634267061	0.0495
0	2368	116.169634267061	0.0499
0	2370	116.269634267061	0.05
0	2370	116.301821473	0.05
0	2372	116.369634267061	0.05
0	2374	116.469634267061	0.05
0	2376	116.569634267061	0.05
0	2376	116.583520561	0.05
0	2378	116.669634267061	0.05
0	2380	116.769634267061	0.05
0	2382	116.869634267061	0.05
0	2384	116.969634267061	0.05
0	2384	117.011715625	0.05
0	2386	117.069634267061	0.05
0	2388	117.169634267061	0.05
0	2390	117.269634267061	0.05
0	2390	117.300466354	0.05
0	2392	117.369634267061	0.0495
0	2392	117.369634267061	0.0495
0	2394	117.469634267061	0.0499
0	2396	117.569634267061	0.05
0	2398	117.669634267061	0.05
0	2400	117.769634267061	0.05
0	2402	117.869634267061	0.05
0	2402	117.887027587	0.05
0	2404	117.969634267061	0.05
0	2406	118.069634267061	0.05
0	2408	118.169634267061	0.05
0	2410	118.269634267061	0.05
0	2410	118.335968917	0.05
0	2412	118.369634267061	0.05
0	2414	118.469634267061	0.05
0	2416	118.569634267061	0.05
0	2418	118.669634267061	0.05
0	2420	118.769634267061	0.05
0	2422	118.869634267061	0.0495
0	2422	118.869634267061	0.0495
0	2422	118.875617698	0.049523933723756
0	2424	118.969634267061	0.0499
0	2426	119.069634267061	0.05
0	2428	119.169634267061	0.05
0	2430	119.269634267061	0.05
0	2432	119.369634267061	0.05
0	2432	119.388671866	0.05
0	2434	119.469634267061	0.05
0	2435	119.478529004485	0.05
0	2437	119.569634267061	0.05
0	2439	119.669634267061	0.05
0	2441	119.769634267061	0.05
0	2443	119.869634267061	0.05
0	2444	119.966054374	0.05
0	2445	119.969634267061	0.05
0	2447	120.069634267061	0.05
0	2449	120.169634267061	0.05
0	2451	120.269634267061	0.05
0	2453	120.369634267061	0.05
0	2455	120.469634267061	0.05
0	2457	120.569634267061	0.05
0	2457	120.585643153	0.05
0	2459	120.669634267061	0.05
0	2461	120.769634267061	0.05
0	2463	120.869634267061	0.05
0	2465	120.969634267061	0.05
0	2467	121.069634267061	0.05
0	2467	121.083576616	0.05
0	2469	121.169634267061	0.05
0	2471	121.269634267061	0.05
0	2473	121.369634267061	0.05
0	2474	121.425444403438	0.05
0	2476	121.469634267061	0.05
0	2478	121.569634267061	0.05
0	2478	121.642203358	0.05
0	2480	121.669634267061	0.05
0	2482	121.769634267061	0.05
0	2484	121.869634267061	0.05
0	2486	121.969634267061	0.05
0	2488	122.069634267061	0.05
0	2488	122.089412341	0.05
0	2490	122.169634267061	0.05
0	2492	122.269634267061	0.05
0	2494	122.369634267061	0.05
0	2496	122.469634267061	0.05
0	2498	122.569634267061	0.05
0	2498	122.620843513	0.05
0	2500	122.669634267061	0.05
0	2502	122.769634267061	0.05
0	2504	122.869634267061	0.05
0	2506	122.969634267061	0.05
0	2508	123.069634267061	0.0495
0	2508	123.069634267061	0.0495
0	2509	123.165604792	0.049883882099756
0	2510	123.169634267061	0.0499
0	2512	123.269634267061	0.05
0	2514	123.369634267061	0.05
0	2516	123.469634267061	0.05
0	2518	123.569634267061	0.05
0	2520	123.669634267061	0.05
0	2520	123.749897605	0.05
0	2522	123.769634267061	0.05
0	2524	123.869634267061	0.05
0	2526	123.969634267061	0.05
0	2528	124.069634267061	0.05
0	2530	124.169634267061	0.05
0	2532	124.269634267061	0.05
0	2534	124.369634267061	0.05
0	2534	124.371618451	0.05
0	2536	124.469634267061	0.0495
0	2536	124.469634267061	0.0495
0	2538	124.569634267061	0.0499
0	2540	124.669634267061	0.05
0	2542	124.769634267061	0.05
0	2544	124.869634267061	0.05
0	2545	124.959851956	0.05
0	2546	124.969634267061	0.05
0	2548	125.069634267061	0.05
0	2550	125.169634267061	0.05
0	2552	125.269634267061	0.05
0	2554	125.369634267061	0.05
0	2554	125.447774335	0.05
0	2556	125.469634267061	0.05
0	2558	125.569634267061	0.05
0	2560	125.669634267061	0.05
0	2562	125.769634267061	0.05
0	2564	125.869634267061	0.05
0	2565	125.969510443	0.0495
0	2565	125.969510443	0.0495
0	2566	125.969634267061	0.049500495296244
0	2568	126.069634267061	0.049900495296244
0	2570	126.169634267061	0.05
0	2572	126.269634267061	0.05
0	2574	126.369634267061	0.05
0	2576	126.469634267061	0.05
0	2576	126.512012923	0.05
0	2578	126.569634267061	0.05
0	2580	126.669634267061	0.05
0	2582	126.769634267061	0.05
0	2584	126.869634267061	0.05
0	2586	126.969634267061	0.05
0	2586	127.007228854	0.05
0	2588	127.069634267061	0.05
0	2590	127.169634267061	0.05
0	2592	127.269634267061	0.05
0	2594	127.369634267061	0.0495
0	2594	127.369634267061	0.0495
0	2596	127.469634267061	0.0499
0	2598	127.569634267061	0.05
0	2600	127.669634267061	0.05
0	2602	127.769634267061	0.05
0	2604	127.869634267061	0.05
0	2605	127.968918013	0.05
0	2606	127.969634267061	0.05
0	2608	128.069634267061	0.05
0	2610	128.169634267061	0.05
0	2612	128.269634267061	0.05
0	2614	128.369634267061	0.05
0	2616	128.469634267061	0.05
0	2618	128.569634267061	0.05
0	2620	128.669634267061	0.05
0	2620	128.718448909	0.05
0	2622	128.769634267061	0.05
0	2624	128.869634267061	0.0495
0	2624	128.869634267061	0.0495
0	2626	128.969634267061	0.0499
0	2628	129.069634267061	0.05
0	2630	129.169634267061	0.05
0	2632	129.269634267061	0.05
0	2634	129.369634267061	0.05
0	2634	129.376861897	0.05
0	2636	129.469634267061	0.05
0	2638	129.569634267061	0.05
0	2640	129.669634267061	0.05
0	2642	129.769634267061	0.05
0	2644	129.869634267061	0.05
0	2644	129.914484541	0.05
0	2646	129.969634267061	0.05
0	2648	130.069634267061	0.05
0	2650	130.169634267061	0.05
0	2652	130.269634267061	0.05
0	2652	130.348526671	0.05
0	2654	130.369634267061	0.05
0	2656	130.469634267061	0.05
0	2658	130.569634267061	0.05
0	2660	130.669634267061	0.05
0	2662	130.769634267061	0.05
0	2662	130.823848699	0.05
0	2664	130.869634267061	0.05
0	2666	130.969634267061	0.05
0	2668	131.069634267061	0.05
0	2670	131.169634267061	0.05
0	2672	131.269634267061	0.05
0	2674	131.369634267061	0.05
0	2676	131.469634267061	0.05
0	2676	131.527343266	0.05
0	2678	131.569634267061	0.05
0	2680	131.669634267061	0.05
0	2682	131.769634267061	0.0495
0	2682	131.769634267061	0.0495
0	2684	131.869634267061	0.0499
0	2686	131.969634267061	0.05
0	2688	132.069634267061	0.05
0	2690	132.169634267061	0.05
0	2690	132.1910164	0.05
0	2692	132.269634267061	0.05
0	2694	132.369634267061	0.05
0	2696	132.469634267061	0.05
0	2698	132.569634267061	0.05
0	2700	132.669634267061	0.05
0	2700	132.687769915	0.05
0	2702	132.769634267061	0.05
0	2704	132.869634267061	0.05
0	2706	132.969634267061	0.05
0	2708	133.069634267061	0.05
0	2709	133.158160342	0.05
0	2710	133.169634267061	0.0495
0	2710	133.169634267061	0.0495
0	2712	133.269634267061	0.0499
0	2714	133.369634267061	0.05
0	2716	133.469634267061	0.05
0	2717	133.495609227484	0.05
0	2719	133.595609227484	0.05
0	2721	133.695609227484	0.05
0	2721	133.727461756	0.05
0	2723	133.795609227484	0.05
0	2725	133.895609227484	0.05
0	2727	133.995609227484	0.05
0	2729	134.095609227484	0.05
0	2731	134.195609227484	0.05
0	2733	134.295609227484	0.05
0	2733	134.308595017	0.05
0	2735	134.395609227484	0.05
0	2737	134.495609227484	0.05
0	2739	134.595609227484	0.05
0	2741	134.695609227484	0.05
0	2742	134.77586599	0.05
0	2743	134.795609227484	0.05
0	2745	134.895609227484	0.05
0	2747	134.995609227484	0.05
0	2749	135.095609227484	0.05
0	2751	135.195609227484	0.05
0	2752	135.278387887	0.05
0	2753	135.295609227484	0.05
0	2755	135.395609227484	0.05
0	2757	135.495609227484	0.05
0	2759	135.595609227484	0.05
0	2761	135.695609227484	0.05
0	2763	135.795609227484	0.05
0	2764	135.856131688	0.05
0	2765	135.895609227484	0.05
0	2767	135.995609227484	0.05
0	2769	136.095609227484	0.05
0	2771	136.195609227484	0.05
0	2773	136.295609227484	0.05
0	2775	136.395609227484	0.05
0	2777	136.495609227484	0.05
0	2777	136.5468073	0.05
0	2779	136.595609227484	0.05
0	2781	136.695609227484	0.05
0	2783	136.795609227484	0.05
0	2785	136.895609227484	0.05
0	2787	136.995609227484	0.05
0	2789	137.095609227484	0.05
0	2789	137.123093095	0.05
0	2791	137.195609227484	0.05
0	2793	137.295609227484	0.05
0	2795	137.395609227484	0.05
0	2797	137.495609227484	0.05
0	2799	137.595609227484	0.05
0	2800	137.668526938	0.05
0	2801	137.695609227484	0.05
0	2803	137.795609227484	0.05
0	2805	137.895609227484	0.05
0	2807	137.995609227484	0.05
0	2809	138.095609227484	0.05
0	2811	138.195609227484	0.05
0	2811	138.230190277	0.05
0	2813	138.295609227484	0.05
0	2815	138.395609227484	0.05
0	2817	138.495609227484	0.05
0	2819	138.595609227484	0.05
0	2821	138.695609227484	0.05
0	2823	138.795609227484	0.05
0	2823	138.802244062	0.05
0	2825	138.895609227484	0.05
0	2827	138.995609227484	0.05
0	2829	139.095609227484	0.05
0	2831	139.195609227484	0.05
0	2833	139.295609227484	0.05
0	2834	139.360413208	0.05
0	2835	139.395609227484	0.05
0	2837	139.495609227484	0.05
0	2839	139.595609227484	0.05
0	2841	139.695609227484	0.05
0	2843	139.795609227484	0.05
0	2844	139.888491634	0.05
0	2845	139.895609227484	0.05
0	2847	139.995609227484	0.05
0	2849	140.095609227484	0.05
0	2851	140.195609227484	0.05
0	2853	140.295609227484	0.05
0	2854	140.352130588	0.05
0	2855	140.395609227484	0.05
0	2857	140.495609227484	0.05
0	2859	140.595609227484	0.05
0	2861	140.695609227484	0.05
0	2863	140.795609227484	0.05
0	2864	140.875178947	0.05
0	2865	140.895609227484	0.05
0	2867	140.995609227484	0.05
0	2869	141.095609227484	0.05
0	2871	141.195609227484	0.05
0	2873	141.295609227484	0.05
0	2875	141.395609227484	0.05
0	2875	141.42838075	0.05
0	2877	141.495609227484	0.05
0	2879	141.595609227484	0.05
0	2881	141.695609227484	0.05
0	2883	141.795609227484	0.05
0	2885	141.895609227484	0.05
0	2886	141.988569835	0.05
0	2887	141.995609227484	0.05
0	2889	142.095609227484	0.05
0	2891	142.195609227484	0.05
0	2893	142.295609227484	0.05
0	2895	142.395609227484	0.05
0	2897	142.495609227484	0.05
0	2898	142.592786392	0.05
0	2899	142.595609227484	0.05
0	2901	142.695609227484	0.05
0	2903	142.795609227484	0.05
0	2905	142.895609227484	0.05
0	2907	142.995609227484	0.05
0	2909	143.095609227484	0.05
0	2911	143.195609227484	0.05
0	2912	143.279168344	0.05
0	2913	143.295609227484	0.05
0	2915	143.395609227484	0.05
0	2917	143.495609227484	0.05
0	2919	143.595609227484	0.05
0	2921	143.695609227484	0.05
0	2923	143.795609227484	0.05
0	2925	143.895609227484	0.05
0	2927	143.995609227484	0.05
0	2927	144.017942206	0.05
0	2929	144.095609227484	0.05
0	2931	144.195609227484	0.05
0	2933	144.295609227484	0.05
0	2935	144.395609227484	0.05
0	2937	144.495609227484	0.05
0	2938	144.578492173	0.05
0	2939	144.595609227484	0.05
0	2941	144.695609227484	0.05
0	2943	144.795609227484	0.05
0	2945	144.895609227484	0.05
0	2947	144.995609227484	0.05
0	2948	145.077323578	0.05
0	2949	145.095609227484	0.05
0	2951	145.195609227484	0.05
0	2953	145.295609227484	0.05
0	2955	145.395609227484	0.05
0	2957	145.495609227484	0.05
0	2959	145.595609227484	0.05
0	2960	145.688748496	0.05
0	2961	145.695609227484	0.05
0	2963	145.795609227484	0.05
0	2965	145.895609227484	0.05
0	2967	145.995609227484	0.05
0	2969	146.095609227484	0.05
0	2969	146.136036292	0.05
0	2971	146.195609227484	0.05
0	2973	146.295609227484	0.05
0	2975	146.395609227484	0.05
0	2977	146.495609227484	0.05
0	2978	146.584116448	0.05
0	2979	146.595609227484	0.05
0	2981	146.695609227484	0.05
0	2983	146.795609227484	0.05
0	2985	146.895609227484	0.05
0	2987	146.995609227484	0.05
0	2989	147.095609227484	0.05
0	2990	147.152421634	0.05
0	2991	147.162166522964	0.05
0	2992	147.195609227484	0.05
0	2994	147.295609227484	0.05
0	2996	147.395609227484	0.05
0	2998	147.495609227484	0.05
0	3000	147.595609227484	0.0495
0	3000	147.595609227484	0.0495
0	3001	147.671668828	0.0495
0	3002	147.695609227484	0.0495
0	3004	147.795609227484	0.0495
0	3006	147.895609227484	0.0495
0	3008	147.995609227484	0.0495
0	3010	148.095609227484	0.0495
0	3011	148.191975601	0.0495
0	3012	148.195609227484	0.0495
0	3014	148.295609227484	0.0495
0	3016	148.395609227484	0.0495
0	3018	148.495609227484	0.0495
0	3020	148.595609227484	0.0495
0	3021	148.688742889	0.0495
0	3022	148.695609227484	0.0495
0	3024	148.795609227484	0.0495
0	3026	148.895609227484	0.0495
0	3028	148.995609227484	0.049005
0	3028	148.995609227484	0.049005
0	3030	149.095609227484	0.049005
0	3032	149.195609227484	0.049005
0	3032	149.214556828	0.049005
0	3034	149.295609227484	0.049005
0	3036	149.395609227484	0.049005
0	3038	149.495609227484	0.049005
0	3040	149.595609227484	0.049005
0	3042	149.695609227484	0.049005
0	3043	149.759426611	0.049005
0	3044	149.795609227484	0.049005
0	3046	149.895609227484	0.049005
0	3048	149.995609227484	0.049005
0	3050	150.095609227484	0.049005
0	3052	150.195609227484	0.049005
0	3053	150.291093016	0.049005
0	3054	150.295609227484	0.049005
0	3056	150.395609227484	0.04851495
0	3056	150.395609227484	0.04851495
0	3058	150.495609227484	0.04851495
0	3060	150.595609227484	0.04851495
0	3062	150.695609227484	0.04851495
0	3063	150.763817581	0.04851495
0	3064	150.795609227484	0.04851495
0	3066	150.895609227484	0.04851495
0	3068	150.995609227484	0.04851495
0	3070	151.095609227484	0.04851495
0	3072	151.195609227484	0.04851495
0	3072	151.203851209	0.04851495
0	3074	151.295609227484	0.04851495
0	3076	151.395609227484	0.04851495
0	3078	151.495609227484	0.04851495
0	3080	151.595609227484	0.04851495
0	3082	151.695609227484	0.04851495
0	3082	151.738288636	0.04851495
0	3084	151.795609227484	0.0480298005
0	3084	151.795609227484	0.0480298005
0	3086	151.895609227484	0.0480298005
0	3088	151.995609227484	0.0480298005
0	3090	152.095609227484	0.0480298005
0	3092	152.195609227484	0.0480298005
0	3094	152.295609227484	0.0480298005
0	3094	152.316823159	0.0480298005
0	3096	152.395609227484	0.0480298005
0	3098	152.495609227484	0.0480298005
0	3100	152.595609227484	0.0480298005
0	3102	152.695609227484	0.0480298005
0	3104	152.795609227484	0.0480298005
0	3104	152.812350046	0.0480298005
0	3106	152.895609227484	0.0480298005
0	3108	152.995609227484	0.0480298005
0	3110	153.095609227484	0.0480298005
0	3112	153.195609227484	0.0480298005
0	3114	153.295609227484	0.047549502495
0	3114	153.295609227484	0.047549502495
0	3114	153.34328164	0.047549502495
0	3116	153.395609227484	0.047549502495
0	3118	153.495609227484	0.047549502495
0	3120	153.595609227484	0.047549502495
0	3122	153.695609227484	0.047549502495
0	3124	153.795609227484	0.047549502495
0	3126	153.895609227484	0.047549502495
0	3128	153.995609227484	0.047549502495
0	3130	154.095609227484	0.047549502495
0	3130	154.105762975	0.047549502495
0	3132	154.195609227484	0.047549502495
0	3134	154.295609227484	0.047549502495
0	3136	154.395609227484	0.047549502495
0	3138	154.495609227484	0.047549502495
0	3140	154.595609227484	0.047549502495
0	3142	154.695609227484	0.047549502495
0	3142	154.700390881	0.047549502495
0	3144	154.795609227484	0.047549502495
0	3146	154.895609227484	0.047549502495
0	3148	154.995609227484	0.047549502495
0	3150	155.095609227484	0.047549502495
0	3152	155.195609227484	0.047549502495
0	3153	155.255057068	0.047549502495
0	3154	155.295609227484	0.047549502495
0	3156	155.395609227484	0.047549502495
0	3158	155.495609227484	0.047549502495
0	3160	155.595609227484	0.047549502495
0	3162	155.695609227484	0.047549502495
0	3163	155.771797366	0.047549502495
0	3164	155.795609227484	0.047549502495
0	3166	155.895609227484	0.047549502495
0	3168	155.995609227484	0.047549502495
0	3170	156.095609227484	0.047549502495
0	3172	156.195609227484	0.04707400747005
0	3172	156.195609227484	0.04707400747005
0	3174	156.295609227484	0.04707400747005
0	3174	156.315854995	0.04707400747005
0	3176	156.395609227484	0.04707400747005
0	3178	156.495609227484	0.04707400747005
0	3180	156.595609227484	0.04707400747005
0	3182	156.695609227484	0.04707400747005
0	3184	156.795609227484	0.04707400747005
0	3185	156.883544725	0.04707400747005
0	3186	156.895609227484	0.04707400747005
0	3188	156.995609227484	0.04707400747005
0	3190	157.095609227484	0.04707400747005
0	3192	157.195609227484	0.04707400747005
0	3194	157.295609227484	0.04707400747005
0	3195	157.35407152	0.04707400747005
0	3196	157.395609227484	0.04707400747005
0	3198	157.495609227484	0.04707400747005
0	3200	157.595609227484	0.04660326739535
0	3200	157.595609227484	0.04660326739535
0	3202	157.695609227484	0.04660326739535
0	3204	157.795609227484	0.04660326739535
0	3206	157.895609227484	0.04660326739535
0	3208	157.995609227484	0.04660326739535
0	3210	158.095609227484	0.04660326739535
0	3210	158.129883673	0.04660326739535
0	3212	158.195609227484	0.04660326739535
0	3214	158.295609227484	0.04660326739535
0	3216	158.395609227484	0.04660326739535
0	3218	158.495609227484	0.04660326739535
0	3220	158.595609227484	0.04660326739535
0	3222	158.695609227484	0.04660326739535
0	3224	158.795609227484	0.04660326739535
0	3226	158.895609227484	0.04660326739535
0	3226	158.949335497	0.04660326739535
0	3228	158.995609227484	0.04660326739535
0	3230	159.095609227484	0.046137234721396
0	3230	159.095609227484	0.046137234721396
0	3232	159.195609227484	0.046137234721396
0	3234	159.295609227484	0.046137234721396
0	3236	159.395609227484	0.046137234721396
0	3238	159.495609227484	0.046137234721396
0	3239	159.559305484	0.046137234721396
0	3240	159.595609227484	0.046137234721396
0	3242	159.695609227484	0.046137234721396
0	3244	159.795609227484	0.046137234721396
0	3246	159.895609227484	0.046137234721396
0	3248	159.995609227484	0.046137234721396
0	3248	160.028488057	0.046137234721396
0	3250	160.095609227484	0.046137234721396
0	3252	160.195609227484	0.046137234721396
0	3254	160.295609227484	0.046137234721396
0	3256	160.395609227484	0.046137234721396
0	3258	160.495609227484	0.046137234721396
0	3258	160.515422995	0.046137234721396
0	3260	160.595609227484	0.046137234721396
0	3262	160.695609227484	0.046137234721396
0	3264	160.795609227484	0.046137234721396
0	3267	160.895609227484	0.046137234721396
0	3268	160.940395448238	0.046137234721396
0	3270	160.995609227484	0.04635808983838
0	3271	161.031086767889	0.0465
0	3271	161.044778365	0.046554766388444
0	3273	161.095609227484	0.04675808983838
0	3274	161.156086767889	0.047
0	3276	161.195609227484	0.04715808983838
0	3278	161.281086767889	0.0475
0	3279	161.295609227484	0.04755808983838
0	3281	161.395609227484	0.04795808983838
0	3282	161.406086767889	0.048
0	3284	161.495609227484	0.04835808983838
0	3285	161.531086767889	0.0485
0	3285	161.542089256	0.048544009952444
0	3287	161.595609227484	0.04875808983838
0	3288	161.656086767889	0.04851
0	3288	161.656086767889	0.04851
0	3290	161.695609227484	0.04866808983838
0	3292	161.778586767889	0.049
0	3293	161.795609227484	0.04906808983838
0	3295	161.895609227484	0.04946808983838
0	3296	161.903586767889	0.0495
0	3298	161.995609227484	0.04986808983838
0	3299	162.028586767889	0.05
0	3299	162.058747462	0.05
0	3301	162.095609227484	0.05
0	3303	162.195609227484	0.05
0	3305	162.295609227484	0.05
0	3307	162.395609227484	0.05
0	3309	162.495609227484	0.05
0	3311	162.595609227484	0.05
0	3311	162.658718662	0.05
0	3313	162.695609227484	0.05
0	3315	162.795609227484	0.05
0	3317	162.895609227484	0.05
0	3319	162.995609227484	0.05
0	3321	163.095609227484	0.05
0	3322	163.169201746	0.05
0	3323	163.195609227484	0.05
0	3325	163.295609227484	0.05
0	3327	163.395609227484	0.05
0	3329	163.495609227484	0.05
0	3331	163.595609227484	0.05
0	3333	163.695609227484	0.05
0	3333	163.707401545	0.05
0	3335	163.795609227484	0.05
0	3337	163.895609227484	0.05
0	3339	163.995609227484	0.05
0	3341	164.095609227484	0.05
0	3343	164.195609227484	0.05
0	3343	164.260871563	0.05
0	3345	164.295609227484	0.05
0	3347	164.395609227484	0.05
0	3349	164.495609227484	0.05
0	3351	164.595609227484	0.05
0	3353	164.695609227484	0.05
0	3355	164.795609227484	0.05
0	3355	164.833032757	0.05
0	3357	164.895609227484	0.05
0	3359	164.995609227484	0.05
0	3361	165.095609227484	0.05
0	3363	165.195609227484	0.05
0	3364	165.290960404	0.05
0	3365	165.295609227484	0.05
0	3367	165.395609227484	0.05
0	3369	165.495609227484	0.05
0	3371	165.595609227484	0.05
0	3373	165.695609227484	0.05
0	3373	165.746972263	0.05
0	3375	165.795609227484	0.05
0	3377	165.895609227484	0.05
0	3379	165.995609227484	0.05
0	3381	166.095609227484	0.05
0	3382	166.099018440553	0.05
0	3384	166.199018440553	0.05
0	3385	166.272887839	0.05
0	3386	166.299018440553	0.05
0	3388	166.399018440553	0.05
0	3390	166.499018440553	0.05
0	3392	166.599018440553	0.05
0	3394	166.699018440553	0.05
0	3394	166.730985583	0.05
0	3396	166.799018440553	0.05
0	3398	166.899018440553	0.05
0	3400	166.999018440553	0.05
0	3402	167.099018440553	0.05
0	3404	167.199018440553	0.0495
0	3404	167.199018440553	0.0495
0	3404	167.259416359	0.049741591673788
0	3406	167.299018440553	0.0499
0	3408	167.399018440553	0.05
0	3412	167.499018440553	0.05
0	3414	167.599018440553	0.05
0	3417	167.699018440553	0.05
0	3420	167.799018440553	0.05
0	3420	167.81664577	0.05
0	3423	167.899018440553	0.05
0	3426	167.999018440553	0.05
0	3428	168.099018440553	0.05
0	3431	168.199018440553	0.05
0	3434	168.299018440553	0.0495
0	3434	168.299018440553	0.0495
0	3434	168.310209847	0.049544765625788
0	3437	168.399018440553	0.0499
0	3440	168.499018440553	0.05
0	3442	168.599018440553	0.05
0	3445	168.699018440553	0.05
0	3448	168.799018440553	0.05
0	3448	168.822980683	0.05
0	3451	168.899018440553	0.05
0	3454	168.999018440553	0.05
0	3456	169.099018440553	0.05
0	3459	169.199018440553	0.05
0	3462	169.299018440553	0.05
0	3462	169.311563608	0.05
0	3465	169.399018440553	0.05
0	3468	169.499018440553	0.05
0	3470	169.599018440553	0.05
0	3473	169.699018440553	0.05
0	3476	169.799018440553	0.05
0	3476	169.831104067	0.05
0	3479	169.899018440553	0.05
0	3481	169.999018440553	0.05
0	3483	170.099018440553	0.05
0	3485	170.199018440553	0.05
0	3487	170.299018440553	0.05
0	3489	170.399018440553	0.05
0	3489	170.453901946	0.05
0	3491	170.499018440553	0.05
0	3493	170.599018440553	0.05
0	3495	170.699018440553	0.05
0	3497	170.799018440553	0.05
0	3499	170.899018440553	0.05
0	3500	170.970511444	0.05
0	3501	170.999018440553	0.05
0	3503	171.099018440553	0.05
0	3505	171.199018440553	0.05
0	3507	171.299018440553	0.05
0	3509	171.399018440553	0.05
0	3511	171.499018440553	0.05
0	3512	171.579822382	0.05
0	3513	171.599018440553	0.05
0	3515	171.699018440553	0.05
0	3517	171.799018440553	0.05
0	3519	171.899018440553	0.05
0	3521	171.999018440553	0.05
0	3523	172.099018440553	0.05
0	3523	172.128194545	0.05
0	3525	172.199018440553	0.05
0	3527	172.299018440553	0.05
0	3528	172.329381041789	0.05
0	3530	172.429381041789	0.05
0	3532	172.529381041789	0.05
0	3533	172.599982252	0.05
0	3534	172.629381041789	0.05
0	3536	172.729381041789	0.05
0	3538	172.829381041789	0.05
0	3540	172.929381041789	0.05
0	3542	173.029381041789	0.05
0	3544	173.129381041789	0.05
0	3545	173.167189699	0.05
0	3546	173.229381041789	0.05
0	3548	173.329381041789	0.05
0	3550	173.429381041789	0.0495
0	3550	173.429381041789	0.0495
0	3552	173.529381041789	0.0499
0	3554	173.629381041789	0.05
0	3556	173.729381041789	0.05
0	3556	173.757628063	0.05
0	3558	173.829381041789	0.05
0	3560	173.929381041789	0.05
0	3562	174.029381041789	0.05
0	3564	174.129381041789	0.05
0	3565	174.216203656	0.05
0	3566	174.229381041789	0.05
0	3568	174.329381041789	0.05
0	3570	174.429381041789	0.05
0	3572	174.529381041789	0.05
0	3574	174.629381041789	0.05
0	3574	174.652186834	0.05
0	3576	174.729381041789	0.05
0	3578	174.829381041789	0.0495
0	3578	174.829381041789	0.0495
0	3580	174.929381041789	0.0499
0	3582	175.029381041789	0.05
0	3584	175.129381041789	0.05
0	3586	175.229381041789	0.05
0	3588	175.329381041789	0.05
0	3590	175.429381041789	0.05
0	3590	175.450824166	0.05
0	3592	175.529381041789	0.05
0	3594	175.629381041789	0.05
0	3596	175.729381041789	0.05
0	3598	175.829381041789	0.05
0	3600	175.929381041789	0.05
0	3602	176.029381041789	0.05
0	3603	176.090729176	0.05
0	3604	176.129381041789	0.05
0	3606	176.229381041789	0.05
0	3608	176.329381041789	0.0495
0	3608	176.329381041789	0.0495
0	3610	176.429381041789	0.0499
0	3612	176.529381041789	0.05
0	3613	176.622588658	0.05
0	3614	176.629381041789	0.05
0	3616	176.729381041789	0.05
0	3618	176.829381041789	0.05
0	3620	176.929381041789	0.05
0	3622	177.029381041789	0.05
0	3624	177.129381041789	0.05
0	3625	177.165965155	0.05
0	3626	177.229381041789	0.05
0	3628	177.329381041789	0.05
0	3630	177.429381041789	0.05
0	3632	177.529381041789	0.05
0	3634	177.629381041789	0.05
0	3636	177.729381041789	0.05
0	3639	177.829381041789	0.05
0	3639	177.831579166	0.05
0	3641	177.929381041789	0.05
0	3643	178.029381041789	0.05
0	3645	178.129381041789	0.05
0	3646	178.143384059289	0.05
0	3648	178.229381041789	0.05
0	3650	178.329381041789	0.05
0	3650	178.362222136	0.05
0	3652	178.429381041789	0.05
0	3654	178.529381041789	0.05
0	3656	178.629381041789	0.05
0	3658	178.729381041789	0.05
0	3660	178.829381041789	0.05
0	3660	178.853847235	0.05
0	3662	178.929381041789	0.05
0	3664	179.029381041789	0.05
0	3665	179.047813370831	0.05
0	3667	179.147813370831	0.05
0	3669	179.247813370831	0.05
0	3671	179.347813370831	0.05
0	3673	179.447813370831	0.05
0	3675	179.547813370831	0.05
0	3676	179.579236423	0.05
0	3677	179.647813370831	0.05
0	3679	179.747813370831	0.05
0	3681	179.847813370831	0.05
0	3683	179.947813370831	0.05
0	3685	180.047813370831	0.05
0	3687	180.147813370831	0.05
0	3689	180.247813370831	0.05
0	3691	180.347813370831	0.05
0	3691	180.363337258	0.05
0	3693	180.447813370831	0.05
0	3695	180.547813370831	0.05
0	3697	180.647813370831	0.05
0	3699	180.747813370831	0.05
0	3701	180.847813370831	0.05
0	3702	180.899880838	0.05
0	3703	180.947813370831	0.05
0	3705	181.047813370831	0.05
0	3707	181.147813370831	0.05
0	3708	181.184996704	0.05
0	3709	181.247813370831	0.05
0	3711	181.347813370831	0.05
0	3713	181.447813370831	0.05
0	3715	181.547813370831	0.05
0	3717	181.647813370831	0.05
0	3719	181.747813370831	0.05
0	3720	181.779139024	0.05
0	3721	181.847813370831	0.05
0	3723	181.947813370831	0.05
0	3725	182.047813370831	0.05
0	3727	182.147813370831	0.05
0	3729	182.247813370831	0.05
0	3730	182.278294792	0.05
0	3731	182.347813370831	0.05
0	3733	182.447813370831	0.05
0	3735	182.547813370831	0.05
0	3736	182.566861312	0.05
0	3737	182.647813370831	0.05
0	3739	182.747813370831	0.05
0	3741	182.847813370831	0.05
0	3743	182.947813370831	0.05
0	3745	183.047813370831	0.05
0	3746	183.100336396	0.05
0	3747	183.147813370831	0.05
0	3749	183.247813370831	0.05
0	3751	183.347813370831	0.05
0	3753	183.447813370831	0.05
0	3755	183.547813370831	0.05
0	3756	183.579573205	0.05
0	3757	183.647813370831	0.05
0	3759	183.747813370831	0.05
0	3761	183.847813370831	0.05
0	3763	183.947813370831	0.05
0	3765	184.047813370831	0.05
0	3766	184.122721516	0.05
0	3767	184.147813370831	0.05
0	3769	184.247813370831	0.05
0	3771	184.347813370831	0.05
0	3773	184.447813370831	0.05
0	3775	184.547813370831	0.05
0	3777	184.647813370831	0.05
0	3779	184.747813370831	0.05
0	3780	184.829950396	0.05
0	3781	184.847813370831	0.05
0	3783	184.947813370831	0.05
0	3785	185.047813370831	0.05
0	3787	185.147813370831	0.05
0	3789	185.247813370831	0.05
0	3791	185.269796578098	0.05
0	3791	185.290074268	0.05
0	3793	185.369796578098	0.05
0	3795	185.469796578098	0.05
0	3797	185.569796578098	0.05
0	3799	185.669796578098	0.05
0	3801	185.769796578098	0.05
0	3803	185.869796578098	0.05
0	3803	185.87986456	0.05
0	3805	185.969796578098	0.05
0	3807	186.069796578098	0.05
0	3809	186.169796578098	0.05
0	3811	186.269796578098	0.05
0	3813	186.369796578098	0.05
0	3813	186.444275614	0.05
0	3815	186.469796578098	0.05
0	3817	186.569796578098	0.05
0	3819	186.669796578098	0.05
0	3821	186.769796578098	0.05
0	3823	186.869796578098	0.05
0	3825	186.969796578098	0.05
0	3827	187.069796578098	0.05
0	3829	187.169796578098	0.05
0	3829	187.170452917	0.05
0	3831	187.269796578098	0.05
0	3833	187.369796578098	0.05
0	3835	187.469796578098	0.05
0	3837	187.569796578098	0.05
0	3839	187.669796578098	0.05
0	3839	187.705721626	0.0495
0	3839	187.705721626	0.0495
0	3841	187.769796578098	0.0495
0	3843	187.869796578098	0.0495
0	3845	187.969796578098	0.0495
0	3847	188.069796578098	0.0495
0	3849	188.169796578098	0.0495
0	3849	188.259257164	0.0495
0	3851	188.269796578098	0.0495
0	3853	188.369796578098	0.0495
0	3855	188.469796578098	0.0495
0	3857	188.569796578098	0.0495
0	3859	188.669796578098	0.0495
0	3861	188.769796578098	0.0495
0	3861	188.804476588	0.0495
0	3863	188.869796578098	0.0495
0	3865	188.969796578098	0.0495
0	3867	189.069796578098	0.0495
0	3869	189.169796578098	0.0495
0	3869	189.252142435	0.0495
0	3871	189.269796578098	0.0495
0	3873	189.369796578098	0.0495
0	3875	189.469796578098	0.0495
0	3877	189.569796578098	0.0495
0	3879	189.669796578098	0.0495
0	3881	189.769796578098	0.0495
0	3881	189.782913772	0.0495
0	3883	189.869796578098	0.0495
0	3885	189.969796578098	0.0495
0	3887	190.069796578098	0.0495
0	3889	190.169796578098	0.0495
0	3889	190.238358229	0.0495
0	3891	190.269796578098	0.0495
0	3893	190.36534792301	0.0495
0	3895	190.46534792301	0.0495
0	3897	190.56534792301	0.0495
0	3899	190.66534792301	0.0495
0	3899	190.690001548	0.0495
0	3901	190.76534792301	0.0495
0	3903	190.86534792301	0.0495
0	3905	190.96534792301	0.0495
0	3907	191.06534792301	0.0495
0	3909	191.16534792301	0.0495
0	3909	191.258194912	0.0495
0	3911	191.26534792301	0.0495
0	3913	191.36534792301	0.0495
0	3915	191.46534792301	0.0495
0	3917	191.56534792301	0.0495
0	3919	191.66534792301	0.0495
0	3921	191.76534792301	0.0495
0	3921	191.787987787	0.0495
0	3923	191.86534792301	0.0495
0	3925	191.96534792301	0.0495
0	3927	192.06534792301	0.0495
0	3929	192.16534792301	0.0495
0	3931	192.26534792301	0.0495
0	3931	192.282555835	0.0495
0	3933	192.36534792301	0.0495
0	3935	192.46534792301	0.0495
0	3937	192.56534792301	0.0495
0	3939	192.66534792301	0.0495
0	3941	192.76534792301	0.0495
0	3941	192.78313444	0.0495
0	3943	192.86534792301	0.0495
0	3945	192.96534792301	0.0495
0	3947	193.06534792301	0.0495
0	3949	193.16534792301	0.0495
0	3951	193.26534792301	0.0495
0	3951	193.347064618	0.0495
0	3953	193.36534792301	0.0495
0	3955	193.46534792301	0.0495
0	3957	193.56534792301	0.0495
0	3959	193.66534792301	0.0495
0	3961	193.76534792301	0.0495
0	3961	193.846429759	0.0495
0	3963	193.86534792301	0.0495
0	3965	193.96534792301	0.0495
0	3967	194.06534792301	0.0495
0	3969	194.16534792301	0.0495
0	3971	194.26534792301	0.0495
0	3973	194.36534792301	0.0495
0	3973	194.366099965	0.0495
0	3975	194.46534792301	0.0495
0	3977	194.56534792301	0.0495
0	3979	194.66534792301	0.0495
0	3981	194.76534792301	0.0495
0	3981	194.855900632	0.049005
0	3981	194.855900632	0.049005
0	3983	194.86534792301	0.049005
0	3985	194.96534792301	0.049005
0	3987	195.06534792301	0.049005
0	3989	195.16534792301	0.049005
0	3991	195.26534792301	0.049005
0	3991	195.345145435	0.049005
0	3993	195.36534792301	0.049005
0	3995	195.46534792301	0.049005
0	3997	195.56534792301	0.049005
0	3999	195.66534792301	0.049005
0	4001	195.76534792301	0.049005
0	4003	195.86534792301	0.049005
0	4003	195.907642891	0.049005
0	4005	195.96534792301	0.049005
0	4007	196.06534792301	0.049005
0	4009	196.16534792301	0.049005
0	4010	196.255442282938	0.04851495
0	4010	196.255442282938	0.04851495
0	4013	196.355442282938	0.04851495
0	4015	196.455442282938	0.04851495
0	4016	196.475094109	0.04851495
[...]
2	21871	1066.214774028908	0.05
2	21874	1066.314774028908	0.05
2	21877	1066.414774028908	0.05
2	21878	1066.493762023033	0.05
2	21879	1066.514774028908	0.05
2	21882	1066.614774028908	0.05
2	21885	1066.714774028908	0.05
2	21888	1066.814774028908	0.05
2	21891	1066.914774028908	0.05
2	21893	1067.014774028908	0.05
2	21894	1067.033609926033	0.0495
2	21894	1067.033609926033	0.0495
2	21896	1067.114774028908	0.0498246564115
2	21899	1067.214774028908	0.05
2	21902	1067.314774028908	0.05
2	21905	1067.414774028908	0.05
2	21907	1067.514774028908	0.05
2	21908	1067.568743731033	0.05
2	21910	1067.614774028908	0.05
2	21913	1067.714774028908	0.05
2	21916	1067.814774028908	0.05
2	21919	1067.914774028908	0.05
2	21921	1068.014774028908	0.05
2	21922	1068.068171812033	0.05
2	21924	1068.114774028908	0.0495
2	21924	1068.114774028908	0.0495
2	21926	1068.214774028908	0.0499
2	21928	1068.314774028908	0.05
2	21930	1068.414774028908	0.05
2	21932	1068.514774028908	0.05
2	21934	1068.614774028908	0.05
2	21935	1068.680724193034	0.05
2	21936	1068.714774028908	0.05
2	21938	1068.814774028908	0.05
2	21940	1068.914774028908	0.05
2	21942	1069.014774028908	0.05
2	21944	1069.114774028908	0.05
2	21944	1069.124056303034	0.05
2	21946	1069.214774028908	0.05
2	21948	1069.314774028908	0.05
2	21950	1069.414774028908	0.05
2	21952	1069.514774028908	0.05
2	21954	1069.614774028908	0.0495
2	21954	1069.614774028908	0.0495
2	21956	1069.714774028908	0.0499
2	21956	1069.723152850035	0.049933515284508
2	21958	1069.814774028908	0.05
2	21960	1069.914774028908	0.05
2	21962	1070.014774028908	0.05
2	21964	1070.114774028908	0.05
2	21966	1070.214774028908	0.05
2	21967	1070.280971461035	0.05
2	21968	1070.314774028908	0.05
2	21970	1070.414774028908	0.05
2	21972	1070.514774028908	0.05
2	21974	1070.614774028908	0.05
2	21976	1070.714774028908	0.05
2	21977	1070.812109620035	0.05
2	21978	1070.814774028908	0.05
2	21980	1070.914774028908	0.05
2	21982	1071.014774028908	0.0495
2	21982	1071.014774028908	0.0495
2	21984	1071.114774028908	0.0499
2	21986	1071.214774028908	0.05
2	21987	1071.286573414035	0.05
2	21988	1071.314774028908	0.05
2	21990	1071.414774028908	0.05
2	21992	1071.514774028908	0.05
2	21994	1071.614774028908	0.05
2	21996	1071.714774028908	0.05
2	21997	1071.812531272035	0.05
2	21998	1071.814774028908	0.05
2	22000	1071.914774028908	0.05
2	22002	1072.014774028908	0.05
2	22004	1072.114774028908	0.05
2	22006	1072.214774028908	0.05
2	22008	1072.314774028908	0.05
2	22008	1072.329110452035	0.05
2	22010	1072.414774028908	0.0495
2	22010	1072.414774028908	0.0495
2	22012	1072.514774028908	0.0499
2	22014	1072.614774028908	0.05
2	22016	1072.714774028908	0.05
2	22018	1072.814774028908	0.05
2	22019	1072.912911022036	0.05
2	22020	1072.914774028908	0.05
2	22022	1073.014774028908	0.05
2	22024	1073.114774028908	0.05
2	22026	1073.214774028908	0.05
2	22028	1073.314774028908	0.05
2	22030	1073.414774028908	0.05
2	22031	1073.475128983037	0.05
2	22032	1073.514774028908	0.05
2	22034	1073.614774028908	0.05
2	22036	1073.714774028908	0.05
2	22038	1073.814774028908	0.05
2	22040	1073.914774028908	0.0495
2	22040	1073.914774028908	0.0495
2	22040	1073.951637994037	0.049647455860516
2	22042	1074.014774028908	0.0499
2	22044	1074.114774028908	0.05
2	22046	1074.214774028908	0.05
2	22048	1074.314774028908	0.05
2	22050	1074.414774028908	0.05
2	22050	1074.463938679037	0.05
2	22052	1074.514774028908	0.05
2	22054	1074.614774028908	0.05
2	22056	1074.714774028908	0.05
2	22058	1074.814774028908	0.05
2	22060	1074.914774028908	0.05
2	22061	1074.988868905037	0.05
2	22062	1075.014774028908	0.05
2	22064	1075.114774028908	0.05
2	22066	1075.214774028908	0.05
2	22068	1075.314774028908	0.0495
2	22068	1075.314774028908	0.0495
2	22070	1075.414774028908	0.0499
2	22071	1075.484895922037	0.05
2	22072	1075.514774028908	0.05
2	22074	1075.614774028908	0.05
2	22076	1075.714774028908	0.05
2	22078	1075.814774028908	0.05
2	22080	1075.914774028908	0.05
2	22082	1076.014774028908	0.05
2	22082	1076.020777771037	0.05
2	22084	1076.114774028908	0.05
2	22086	1076.214774028908	0.05
2	22088	1076.314774028908	0.05
2	22090	1076.414774028908	0.05
2	22091	1076.488038118037	0.05
2	22092	1076.514774028908	0.05
2	22094	1076.614774028908	0.05
2	22096	1076.714774028908	0.0495
2	22096	1076.714774028908	0.0495
2	22098	1076.814774028908	0.0499
2	22100	1076.914774028908	0.05
2	22102	1077.014774028908	0.05
2	22102	1077.037169032037	0.05
2	22104	1077.114774028908	0.05
2	22106	1077.214774028908	0.05
2	22108	1077.314774028908	0.05
2	22110	1077.414774028908	0.05
2	22112	1077.514774028908	0.05
2	22112	1077.552513643037	0.05
2	22114	1077.614774028908	0.05
2	22116	1077.714774028908	0.05
2	22118	1077.814774028908	0.05
2	22120	1077.914774028908	0.05
2	22122	1078.014774028908	0.05
2	22123	1078.113905965038	0.05
2	22124	1078.114774028908	0.0495
2	22124	1078.114774028908	0.0495
2	22126	1078.214774028908	0.0499
2	22128	1078.314774028908	0.05
2	22130	1078.414774028908	0.05
2	22132	1078.514774028908	0.05
2	22134	1078.614774028908	0.05
2	22136	1078.714774028908	0.05
2	22138	1078.814774028908	0.05
2	22138	1078.822902241039	0.05
2	22140	1078.914774028908	0.05
2	22142	1079.014774028908	0.05
2	22144	1079.114774028908	0.05
2	22146	1079.214774028908	0.05
2	22148	1079.314774028908	0.05
2	22150	1079.414774028908	0.05
2	22152	1079.514774028908	0.05
2	22154	1079.614774028908	0.05
2	22154	1079.66156578904	0.0495
2	22154	1079.66156578904	0.0495
2	22156	1079.714774028908	0.049712832959472
2	22158	1079.814774028908	0.05
2	22160	1079.914774028908	0.05
2	22162	1080.014774028908	0.05
2	22164	1080.114774028908	0.05
2	22166	1080.214774028908	0.05
2	22168	1080.314774028908	0.05
2	22170	1080.414774028908	0.05
2	22170	1080.436049665041	0.05
2	22172	1080.514774028908	0.05
2	22174	1080.614774028908	0.05
2	22176	1080.714774028908	0.05
2	22178	1080.814774028908	0.05
2	22180	1080.914774028908	0.05
2	22182	1081.014774028908	0.05
2	22184	1081.114774028908	0.05
2	22184	1081.121264770042	0.0495
2	22184	1081.121264770042	0.0495
2	22186	1081.214774028908	0.049874037035464
2	22188	1081.314774028908	0.05
2	22190	1081.414774028908	0.05
2	22192	1081.514774028908	0.05
2	22194	1081.614774028908	0.05
2	22196	1081.714774028908	0.05
2	22198	1081.814774028908	0.05
2	22200	1081.914774028908	0.05
2	22200	1081.953237712043	0.05
2	22202	1082.014774028908	0.05
2	22204	1082.114774028908	0.05
2	22206	1082.214774028908	0.05
2	22208	1082.314774028908	0.05
2	22210	1082.414774028908	0.05
2	22212	1082.514774028908	0.05
2	22214	1082.614774028908	0.05
2	22214	1082.650167829043	0.0495
2	22214	1082.650167829043	0.0495
2	22216	1082.714774028908	0.04975842479946
2	22218	1082.814774028908	0.05
2	22220	1082.914774028908	0.05
2	22222	1083.014774028908	0.05
2	22224	1083.114774028908	0.05
2	22226	1083.214774028908	0.05
2	22226	1083.269345560044	0.05
2	22228	1083.314774028908	0.05
2	22230	1083.414774028908	0.05
2	22232	1083.514774028908	0.05
2	22234	1083.614774028908	0.05
2	22235	1083.700704673044	0.05
2	22236	1083.714774028908	0.05
2	22238	1083.814774028908	0.05
2	22240	1083.914774028908	0.05
2	22242	1084.014774028908	0.05
2	22244	1084.114774028908	0.0495
2	22244	1084.114774028908	0.0495
2	22246	1084.214774028908	0.0499
2	22248	1084.314774028908	0.05
2	22248	1084.366163047045	0.05
2	22250	1084.414774028908	0.05
2	22252	1084.514774028908	0.05
2	22254	1084.614774028908	0.05
2	22256	1084.714774028908	0.05
2	22258	1084.814774028908	0.05
2	22260	1084.914774028908	0.05
2	22262	1085.014774028908	0.05
2	22262	1085.058198253045	0.05
2	22264	1085.114774028908	0.05
2	22266	1085.214774028908	0.05
2	22268	1085.314774028908	0.05
2	22270	1085.414774028908	0.05
2	22272	1085.514774028908	0.05
2	22272	1085.549547697046	0.0495
2	22272	1085.549547697046	0.0495
2	22274	1085.614774028908	0.049760905327448
2	22276	1085.714774028908	0.05
2	22278	1085.814774028908	0.05
2	22280	1085.914774028908	0.05
2	22281	1086.003700417046	0.05
2	22282	1086.014774028908	0.05
2	22284	1086.114774028908	0.05
2	22286	1086.214774028908	0.05
2	22288	1086.314774028908	0.05
2	22290	1086.414774028908	0.05
2	22292	1086.514774028908	0.05
2	22292	1086.564451291046	0.05
2	22294	1086.614774028908	0.05
2	22296	1086.714774028908	0.05
2	22298	1086.814774028908	0.05
2	22300	1086.914774028908	0.05
2	22302	1087.014774028908	0.0495
2	22302	1087.014774028908	0.0495
2	22304	1087.114774028908	0.0499
2	22306	1087.214774028908	0.05
2	22308	1087.314774028908	0.05
2	22308	1087.347101263047	0.05
2	22309	1087.353328038973	0.05
2	22311	1087.453328038973	0.05
2	22313	1087.553328038973	0.05
2	22315	1087.653328038973	0.05
2	22317	1087.753328038973	0.05
2	22319	1087.853328038973	0.05
2	22319	1087.862688409047	0.05
2	22321	1087.953328038973	0.05
2	22323	1088.053328038973	0.05
2	22325	1088.153328038973	0.05
2	22327	1088.253328038973	0.05
2	22329	1088.353328038973	0.05
2	22329	1088.363445181047	0.05
2	22331	1088.453328038973	0.05
2	22333	1088.553328038973	0.05
2	22335	1088.653328038973	0.05
2	22337	1088.753328038973	0.05
2	22338	1088.838158941047	0.05
2	22339	1088.853328038973	0.05
2	22341	1088.953328038973	0.05
2	22343	1089.053328038973	0.05
2	22345	1089.153328038973	0.05
2	22347	1089.253328038973	0.05
2	22348	1089.280175782047	0.05
2	22349	1089.353328038973	0.05
2	22351	1089.453328038973	0.05
2	22353	1089.553328038973	0.05
2	22355	1089.653328038973	0.05
2	22357	1089.753328038973	0.05
2	22359	1089.853328038973	0.05
2	22361	1089.953328038973	0.05
2	22361	1089.955962811047	0.05
2	22363	1090.053328038973	0.05
2	22365	1090.153328038973	0.05
2	22367	1090.253328038973	0.05
2	22369	1090.353328038973	0.05
2	22371	1090.453328038973	0.05
2	22372	1090.525385587047	0.05
2	22373	1090.553328038973	0.05
2	22375	1090.653328038973	0.05
2	22377	1090.753328038973	0.05
2	22379	1090.853328038973	0.05
2	22381	1090.953328038973	0.05
2	22383	1091.053328038973	0.05
2	22385	1091.153328038973	0.05
2	22387	1091.253328038973	0.05
2	22387	1091.266942420046	0.05
2	22389	1091.353328038973	0.05
2	22391	1091.453328038973	0.05
2	22393	1091.553328038973	0.05
2	22395	1091.653328038973	0.05
2	22397	1091.753328038973	0.05
2	22399	1091.853328038973	0.05
2	22401	1091.953328038973	0.05
2	22402	1091.985876364046	0.05
2	22403	1092.053328038973	0.05
2	22405	1092.153328038973	0.05
2	22407	1092.253328038973	0.05
2	22409	1092.353328038973	0.05
2	22411	1092.453328038973	0.05
2	22413	1092.553328038973	0.05
2	22415	1092.653328038973	0.05
2	22417	1092.753328038973	0.05
2	22418	1092.775786129045	0.0495
2	22418	1092.775786129045	0.0495
2	22419	1092.853328038973	0.049810167639712
2	22421	1092.953328038973	0.05
2	22423	1093.053328038973	0.05
2	22425	1093.153328038973	0.05
2	22427	1093.253328038973	0.05
2	22428	1093.276767598045	0.05
2	22429	1093.353328038973	0.05
2	22431	1093.453328038973	0.05
2	22433	1093.553328038973	0.05
2	22435	1093.653328038973	0.05
2	22437	1093.753328038973	0.05
2	22439	1093.853328038973	0.05
2	22439	1093.859807086044	0.05
2	22441	1093.953328038973	0.05
2	22443	1094.053328038973	0.05
2	22445	1094.153328038973	0.05
2	22447	1094.253328038973	0.05
2	22449	1094.353328038973	0.05
2	22450	1094.381666311043	0.05
2	22451	1094.453328038973	0.05
2	22453	1094.553328038973	0.05
2	22455	1094.653328038973	0.05
2	22457	1094.753328038973	0.05
2	22459	1094.853328038973	0.05
2	22461	1094.953328038973	0.05
2	22461	1094.966768782043	0.05
2	22463	1095.053328038973	0.05
2	22465	1095.153328038973	0.05
2	22467	1095.253328038973	0.05
2	22469	1095.353328038973	0.05
2	22471	1095.453328038973	0.05
2	22472	1095.541042477043	0.05
2	22473	1095.553328038973	0.05
2	22475	1095.653328038973	0.05
2	22477	1095.753328038973	0.05
2	22479	1095.853328038973	0.05
2	22481	1095.953328038973	0.05
2	22482	1096.002726574043	0.05
2	22483	1096.053328038973	0.05
2	22485	1096.153328038973	0.05
2	22487	1096.253328038973	0.05
2	22489	1096.353328038973	0.05
2	22490	1096.441545967043	0.05
2	22491	1096.453328038973	0.05
2	22493	1096.553328038973	0.05
2	22495	1096.653328038973	0.05
2	22497	1096.753328038973	0.05
2	22499	1096.853328038973	0.05
2	22500	1096.945321861043	0.05
2	22501	1096.953328038973	0.05
2	22503	1097.053328038973	0.05
2	22505	1097.153328038973	0.05
2	22507	1097.253328038973	0.05
2	22509	1097.353328038973	0.05
2	22510	1097.394295156043	0.05
2	22511	1097.453328038973	0.05
2	22513	1097.553328038973	0.05
2	22515	1097.653328038973	0.05
2	22517	1097.753328038973	0.05
2	22519	1097.853328038973	0.05
2	22519	1097.870677765043	0.05
2	22521	1097.953328038973	0.05
2	22523	1098.053328038973	0.05
2	22525	1098.153328038973	0.05
2	22527	1098.253328038973	0.05
2	22529	1098.353328038973	0.05
2	22530	1098.385482151043	0.05
2	22531	1098.453328038973	0.05
2	22533	1098.553328038973	0.05
2	22535	1098.653328038973	0.05
2	22537	1098.753328038973	0.05
2	22539	1098.853328038973	0.05
2	22541	1098.953328038973	0.05
2	22542	1098.990556879042	0.05
2	22543	1099.053328038973	0.05
2	22545	1099.153328038973	0.05
2	22547	1099.253328038973	0.05
2	22549	1099.353328038973	0.05
2	22550	1099.446213835042	0.05
2	22551	1099.453328038973	0.05
2	22553	1099.553328038973	0.05
2	22555	1099.653328038973	0.05
2	22557	1099.753328038973	0.05
2	22559	1099.822885496178	0.05
2	22560	1099.853328038973	0.05
2	22562	1099.953328038973	0.0495
2	22562	1099.953328038973	0.0495
2	22564	1100.053328038973	0.0495
2	22565	1100.096392168042	0.0495
2	22566	1100.153328038973	0.0495
2	22568	1100.253328038973	0.0495
2	22570	1100.353328038973	0.0495
2	22572	1100.453328038973	0.0495
2	22574	1100.553328038973	0.0495
2	22576	1100.653328038973	0.0495
2	22578	1100.753328038973	0.0495
2	22578	1100.758758127042	0.0495
2	22580	1100.853328038973	0.0495
2	22582	1100.953328038973	0.0495
2	22584	1101.053328038973	0.0495
2	22586	1101.153328038973	0.0495
2	22588	1101.253328038973	0.0495
2	22590	1101.353328038973	0.0495
2	22591	1101.376419061041	0.0495
2	22592	1101.453328038973	0.0495
2	22594	1101.553328038973	0.0495
2	22596	1101.653328038973	0.0495
2	22598	1101.753328038973	0.0495
2	22600	1101.853328038973	0.0495
2	22602	1101.953328038973	0.0495
2	22603	1101.998096746041	0.0495
2	22604	1102.053328038973	0.0495
2	22606	1102.153328038973	0.0495
2	22608	1102.253328038973	0.0495
2	22610	1102.353328038973	0.0495
2	22612	1102.453328038973	0.0495
2	22614	1102.553328038973	0.0495
2	22616	1102.653328038973	0.0495
2	22618	1102.753328038973	0.0495
2	22619	1102.79622680504	0.0495
2	22620	1102.853328038973	0.049005
2	22620	1102.853328038973	0.049005
2	22622	1102.953328038973	0.049005
2	22624	1103.053328038973	0.049005
2	22626	1103.153328038973	0.049005
2	22627	1103.24668505504	0.049005
2	22628	1103.253328038973	0.049005
2	22630	1103.353328038973	0.049005
2	22632	1103.453328038973	0.049005
2	22634	1103.553328038973	0.049005
2	22636	1103.653328038973	0.049005
2	22638	1103.753328038973	0.049005
2	22639	1103.85295873304	0.049005
2	22640	1103.853328038973	0.049005
2	22642	1103.953328038973	0.049005
2	22644	1104.053328038973	0.049005
2	22646	1104.153328038973	0.049005
2	22648	1104.253328038973	0.049005
2	22650	1104.353328038973	0.04851495
2	22650	1104.353328038973	0.04851495
2	22651	1104.375228361039	0.04851495
2	22652	1104.453328038973	0.04851495
2	22654	1104.553328038973	0.04851495
2	22656	1104.653328038973	0.04851495
2	22658	1104.753328038973	0.04851495
2	22660	1104.853328038973	0.04851495
2	22662	1104.953328038973	0.04851495
2	22662	1104.958835416039	0.04851495
2	22664	1105.053328038973	0.04851495
2	22666	1105.153328038973	0.04851495
2	22668	1105.253328038973	0.04851495
2	22670	1105.353328038973	0.04851495
2	22672	1105.453328038973	0.04851495
2	22674	1105.553328038973	0.04851495
2	22674	1105.570220800039	0.04851495
2	22676	1105.653328038973	0.04851495
2	22678	1105.753328038973	0.0480298005
2	22678	1105.753328038973	0.0480298005
2	22680	1105.853328038973	0.0480298005
2	22682	1105.953328038973	0.0480298005
2	22684	1106.053328038973	0.0480298005
2	22686	1106.153328038973	0.0480298005
2	22688	1106.253328038973	0.0480298005
2	22690	1106.353328038973	0.0480298005
2	22690	1106.367371254038	0.0480298005
2	22690	1106.372224209139	0.0480298005
3	0	0	0.004
3	940	46.974101355068	0
3	1433	71.530055965303	0.004
3	1889	93.660477081588	0
3	3410	167.487780704642	0.004
3	3638	177.819460884562	0
3	4029	197.144165778228	0.004
3	4119	200.969077930019	0
3	4256	207.782873254054	0.004
3	4825	235.475578725022	0
3	5829	284.581953863564	0.004
3	5943	289.610318522166	0
3	6652	324.72652915052	0.004
3	6728	328.035942381379	0
3	6886	335.841046316366	0.004
3	6897	336.318095815523	0
3	7489	365.408267396467	0.004
3	7758	377.757129714092	0
3	8342	406.645388894011	0.004
3	8633	420.303559996437	0
3	8837	430.440972219752	0.004
3	10158	495.145036372076	0
3	10856	529.683161790201	0.004
3	11515	561.714174627389	0
3	12115	591.629441189412	0.004
3	12263	598.11668960787	0
3	12720	620.771717639807	0.004
3	13171	642.821631065667	0
3	13725	670.345322050385	0.004
3	14686	717.771448558089	0
3	15433	755.080780850252	0.004
3	15627	762.228153828748	0
3	16268	793.98150246591	0.004
3	16283	794.470692056355	0
3	16962	827.136724036901	0.004
3	17251	841.125592005146	0
3	17618	859.385218489839	0.004
3	17964	875.992767323733	0
3	17989	877.247061226603	0.004
3	18521	902.98657899578	0
3	18690	911.319690350277	0.004
3	19021	927.645074014473	0
3	19449	948.674296712452	0.004
3	19981	974.197545666457	0
3	20097	979.895438941524	0.004
3	20396	994.201561180048	0
3	20908	1019.281886888948	0.004
3	21007	1023.697069971243	0
3	21422	1044.314509300004	0.004
3	22559	1099.822885496178	0
4	0	0	0.004
4	461	23.08057828677	0
4	2100	104.079652459291	0.004
4	2435	119.478529004485	0
4	2474	121.425444403438	0.004
4	2991	147.162166522964	0
4	3268	160.940395448238	0.004
4	3646	178.143384059289	0
4	4293	209.371649780467	0.004
4	4621	225.351877758757	0
4	5438	266.034961778119	0.004
4	5640	275.115640453596	0
4	6066	295.744060036108	0.004
4	6461	315.243551351165	0
4	6950	338.871152124072	0.004
4	7115	346.806011789612	0
4	7714	376.210810206363	0.004
4	7859	382.69615476736	0
4	7862	382.745234840403	0.004
4	8259	402.580132299534	0
4	9061	441.260947074945	0.004
4	9557	465.288922758981	0
4	9566	465.698094384713	0.004
4	9628	468.6742252432	0
4	10644	519.341786679197	0.004
4	11642	568.032432931156	0
4	12218	595.954806465338	0.004
4	12483	609.027637135372	0
4	12493	609.467452266256	0.004
4	12977	633.353843658877	0
4	13104	639.704785061071	0.004
4	13194	643.844796446419	0
4	15535	759.007141899522	0.004
4	15797	770.521293497874	0
4	16541	807.341225081411	0.004
4	16841	821.13559383336	0
4	18275	891.471636388033	0.004
4	18650	909.362384365146	0
4	19436	948.236622890354	0.004
4	19500	950.197118028172	0
4	20157	982.780015806056	0.004
4	20299	989.378859870805	0
4	20879	1018.27114573294	0.004
4	21186	1032.606190672967	0
4	21752	1060.517712740639	0.004
4	21756	1060.649710598117	0
4	21867	1066.08875888676	0.004
5	0	0	0.004
5	940	46.974101355068	0
5	1433	71.530055965303	0.004
5	1889	93.660477081588	0
5	3410	167.487780704642	0.004
5	3638	177.819460884562	0
5	4029	197.144165778228	0.004
5	4119	200.969077930019	0
5	4256	207.782873254054	0.004
5	4825	235.475578725022	0
5	5829	284.581953863564	0.004
5	5943	289.610318522166	0
5	6652	324.72652915052	0.004
5	6728	328.035942381379	0
5	6886	335.841046316366	0.004
5	6897	336.318095815523	0
5	7489	365.408267396467	0.004
5	7758	377.757129714092	0
5	8342	406.645388894011	0.004
5	8633	420.303559996437	0
5	8837	430.440972219752	0.004
5	10158	495.145036372076	0
5	10856	529.683161790201	0.004
5	11515	561.714174627389	0
5	12115	591.629441189412	0.004
5	12263	598.11668960787	0
5	12720	620.771717639807	0.004
5	13171	642.821631065667	0
5	13725	670.345322050385	0.004
5	14686	717.771448558089	0
5	15433	755.080780850252	0.004
5	15627	762.228153828748	0
5	16268	793.98150246591	0.004
5	16283	794.470692056355	0
5	16962	827.136724036901	0.004
5	17251	841.125592005146	0
5	17618	859.385218489839	0.004
5	17964	875.992767323733	0
5	17989	877.247061226603	0.004
5	18521	902.98657899578	0
5	18690	911.319690350277	0.004
5	19021	927.645074014473	0
5	19449	948.674296712452	0.004
5	19981	974.197545666457	0
5	20097	979.895438941524	0.004
5	20396	994.201561180048	0
5	20908	1019.281886888948	0.004
5	21007	1023.697069971243	0
5	21422	1044.314509300004	0.004
5	22559	1099.822885496178	0

