version 2
run Mysterio_ex2-0-20211020-12:06:48-9327
attr configname Mysterio_ex2
attr datetime 20211020-12:06:48
attr experiment Mysterio_ex2
attr inifile omnetpp.ini
attr iterationvars ""
attr iterationvarsf ""
attr measurement ""
attr network MysterioCommunication2
attr processid 9327
attr repetition 0
attr replication #0
attr resultdir results
attr runnumber 0
attr seedset 0
param *.host[*].mobility.numeroDrones 2
param *.numHosts 2
param *.host[*].osgModel "\"3d/drone.ive.100.scale.0,0,90.rot\""
param *.basestation.osgModel "\"3d/car.ive.50.scale.0,0,90.rot\""
param *.canvasVisualizer.energyStorageVisualizer.displayEnergyStorages true
param *.host[*].hasStatus true
param *.host[*].energyStorage.typename "\"SimpleEpEnergyStorage\""
param *.host[*].wlan[*].radio.energyConsumer.typename "\"StateBasedEpEnergyConsumer\""
param *.host[*].energyManagement.typename "\"SimpleEpEnergyManagement\""
param *.host[*].energyStorage.nominalCapacity 0.05J
param *.host[*].energyManagement.nodeShutdownCapacity "0.1 * energyStorage.nominalCapacity"
param *.host[*].energyManagement.nodeStartCapacity "0.5 * energyStorage.nominalCapacity"
param *.host[*].energyStorage.initialCapacity 0.05J
param *.host[*].energyGenerator.typename "\"AlternatingEpEnergyGenerator\""
param *.host[*].energyGenerator.powerGeneration 4mW
param *.host[*].energyGenerator.sleepInterval exponential(25s)
param *.host[*].energyGenerator.generationInterval exponential(25s)
param *.host[*].mobility.typename "\"UAVMobility\""
param *.host[*].mobility.changeInterval 1s
param *.host[*].mobility.initialMovementHeading "uniform(0deg, 360deg)"
param *.host[*].mobility.initialMovementElevation "uniform(-90deg, 90deg)"
param *.host[*].mobility.angleDelta uniform(-10deg,10deg)
param *.host[*].mobility.rotationAxisAngle uniform(-10deg,10deg)
param *.host[*].mobility.speed uniform(10mps,20mps)
param *.host[*].mobility.faceForward false
param *.host[*].mobility.initialX 220m
param *.host[*].mobility.initialY 220m
param *.host[*].mobility.initialZ 80m
param *.visualizer.osgVisualizer.typename "\"IntegratedOsgVisualizer\""
param *.visualizer.osgVisualizer.sceneVisualizer.clearColor "\"skyblue\""
param *.visualizer.osgVisualizer.sceneVisualizer.sceneImage "\"showcases/desert\""
param *.visualizer.osgVisualizer.sceneVisualizer.sceneImageSize 5000m
param *.visualizer.osgVisualizer.sceneVisualizer.axisLength 1000m
param *.visualizer.osgVisualizer.sceneVisualizer.sceneMinX -2000m
param *.visualizer.osgVisualizer.sceneVisualizer.sceneMinY -2000m
param *.visualizer.osgVisualizer.sceneVisualizer.sceneMinZ 0m
param *.visualizer.osgVisualizer.sceneVisualizer.sceneMaxX 3000m
param *.visualizer.osgVisualizer.sceneVisualizer.sceneMaxY 3000m
param *.visualizer.osgVisualizer.sceneVisualizer.sceneMaxZ 1000m
param *.visualizer.osgVisualizer.networkNodeVisualizer.displayModuleName false
param *.visualizer.*.mobilityVisualizer.displayMobility true
param *.visualizer.*.mobilityVisualizer.displayPositions true
param *.visualizer.*.mobilityVisualizer.displayOrientations false
param *.visualizer.*.mobilityVisualizer.displayVelocities true
param *.visualizer.*.mobilityVisualizer.displayMovementTrails true
param *.visualizer.*.mobilityVisualizer.animationSpeed 3
param **.constraintAreaMinX 0m
param **.constraintAreaMinY 0m
param **.constraintAreaMinZ 0m
param **.constraintAreaMaxX 1000m
param **.constraintAreaMaxY 1000m
param **.constraintAreaMaxZ 1000m
param **.networkConfiguratorModule "\"\""

vector 0 MysterioCommunication2.host[0].energyStorage residualEnergyCapacity:vector ETV
attr interpolationmode linear
attr source residualEnergyCapacityChanged
attr title "Residual energy capacity, vector"
vector 1 MysterioCommunication2.host[0].energyGenerator powerGeneration:vector ETV
attr interpolationmode sample-hold
attr source powerGenerationChanged
attr title "Power generation, vector"
vector 2 MysterioCommunication2.host[1].energyStorage residualEnergyCapacity:vector ETV
attr interpolationmode linear
attr source residualEnergyCapacityChanged
attr title "Residual energy capacity, vector"
vector 3 MysterioCommunication2.host[1].energyGenerator powerGeneration:vector ETV
attr interpolationmode sample-hold
attr source powerGenerationChanged
attr title "Power generation, vector"
vector 4 MysterioCommunication2.host[0].energyStorage powerGeneration:vector ETV
attr interpolationmode sample-hold
attr source powerGenerationChanged
attr title "Power generation, vector"
vector 5 MysterioCommunication2.host[1].energyStorage powerGeneration:vector ETV
attr interpolationmode sample-hold
attr source powerGenerationChanged
attr title "Power generation, vector"
0	0	0	0.05
0	0	0.1	0.05
0	2	0.154694542	0.05
0	3	0.2	0.05
0	5	0.3	0.05
0	7	0.4	0.05
0	9	0.5	0.05
0	10	0.563141233	0.05
0	11	0.6	0.05
0	13	0.7	0.05
0	15	0.8	0.05
0	17	0.9	0.05
0	19	1	0.05
0	21	1.1	0.05
0	23	1.2	0.05
0	24	1.241332945	0.05
0	25	1.3	0.05
0	27	1.4	0.05
0	29	1.5	0.05
0	31	1.6	0.05
0	33	1.7	0.05
0	34	1.780660726	0.05
0	35	1.8	0.05
0	37	1.9	0.05
0	39	2	0.05
0	40	2.036188006	0.05
0	41	2.1	0.05
0	43	2.2	0.05
0	45	2.3	0.05
0	47	2.4	0.05
0	49	2.5	0.05
0	50	2.506325002	0.05
0	51	2.6	0.05
0	53	2.7	0.05
0	55	2.8	0.05
0	57	2.9	0.05
0	58	2.978197477	0.05
0	59	3	0.05
0	61	3.1	0.05
0	63	3.2	0.05
0	65	3.3	0.05
0	67	3.4	0.05
0	68	3.4641937	0.05
0	69	3.5	0.05
0	71	3.6	0.05
0	73	3.7	0.05
0	75	3.8	0.05
0	77	3.9	0.05
0	79	4	0.05
0	81	4.1	0.05
0	82	4.133540965	0.0495
0	82	4.133540965	0.0495
0	83	4.2	0.04976583614
0	85	4.3	0.05
0	87	4.4	0.05
0	89	4.5	0.05
0	91	4.6	0.05
0	93	4.7	0.05
0	94	4.798546774	0.05
0	95	4.8	0.05
0	97	4.9	0.05
0	99	5	0.05
0	101	5.1	0.05
0	103	5.2	0.05
0	105	5.3	0.05
0	106	5.36327389	0.05
0	107	5.4	0.05
0	109	5.5	0.05
0	111	5.6	0.05
0	113	5.7	0.05
0	115	5.8	0.05
0	117	5.9	0.05
0	119	6	0.05
0	120	6.031338841	0.05
0	121	6.1	0.05
0	123	6.2	0.05
0	125	6.3	0.05
0	127	6.4	0.05
0	129	6.5	0.05
0	130	6.561041128	0.05
0	131	6.6	0.05
0	133	6.7	0.05
0	135	6.8	0.05
0	137	6.9	0.05
0	139	7	0.05
0	140	7.06479211	0.0495
0	140	7.06479211	0.0495
0	141	7.1	0.04964083156
0	143	7.2	0.05
0	145	7.3	0.05
0	147	7.4	0.05
0	149	7.5	0.05
0	151	7.6	0.05
0	152	7.602928396	0.05
0	153	7.7	0.05
0	155	7.8	0.05
0	157	7.9	0.05
0	159	8	0.05
0	161	8.1	0.05
0	162	8.125167013	0.05
0	163	8.2	0.05
0	165	8.3	0.05
0	167	8.4	0.05
0	169	8.5	0.05
0	171	8.6	0.05
0	172	8.627581597	0.05
0	173	8.7	0.05
0	175	8.8	0.05
0	176	8.895274147	0.05
0	177	8.9	0.05
0	179	9	0.05
0	181	9.1	0.05
0	183	9.2	0.05
0	185	9.3	0.05
0	187	9.4	0.05
0	188	9.465469387	0.05
0	189	9.5	0.05
0	191	9.6	0.05
0	193	9.7	0.05
0	194	9.75789847	0.05
0	195	9.8	0.05
0	197	9.9	0.05
0	199	10	0.05
0	200	10.038054253	0.05
0	201	10.1	0.05
0	203	10.2	0.05
0	205	10.3	0.05
0	206	10.31883253	0.05
0	207	10.4	0.05
0	209	10.5	0.05
0	211	10.6	0.05
0	213	10.7	0.05
0	214	10.744782751	0.05
0	215	10.8	0.05
0	217	10.9	0.05
0	219	11	0.05
0	221	11.1	0.05
0	222	11.143786696	0.0495
0	222	11.143786696	0.0495
0	223	11.2	0.049724853216
0	225	11.3	0.05
0	227	11.4	0.05
0	229	11.5	0.05
0	231	11.6	0.05
0	232	11.67406345	0.05
0	233	11.7	0.05
0	235	11.8	0.05
0	237	11.9	0.05
0	239	12	0.05
0	241	12.1	0.05
0	243	12.2	0.05
0	244	12.220493422	0.05
0	245	12.3	0.05
0	247	12.4	0.05
0	249	12.5	0.05
0	251	12.6	0.05
0	253	12.7	0.05
0	254	12.707702671	0.05
0	255	12.8	0.05
0	257	12.9	0.05
0	259	13	0.05
0	261	13.1	0.05
0	262	13.199039602	0.05
0	263	13.2	0.05
0	265	13.3	0.05
0	267	13.4	0.05
0	269	13.5	0.05
0	271	13.6	0.05
0	272	13.66327531	0.05
0	273	13.7	0.05
0	275	13.8	0.05
0	277	13.9	0.05
0	279	14	0.05
0	281	14.1	0.05
0	282	14.16568897	0.05
0	283	14.2	0.05
0	285	14.3	0.05
0	287	14.4	0.05
0	289	14.5	0.05
0	291	14.6	0.05
0	292	14.636913868	0.05
0	293	14.7	0.05
0	295	14.8	0.05
0	297	14.9	0.05
0	299	15	0.05
0	301	15.1	0.05
0	302	15.111060715	0.05
0	303	15.2	0.05
0	305	15.3	0.05
0	307	15.4	0.05
0	309	15.5	0.05
0	310	15.557082454	0.05
0	311	15.6	0.05
0	313	15.7	0.05
0	315	15.8	0.05
0	317	15.9	0.05
0	319	16	0.05
0	320	16.008334861	0.05
0	321	16.1	0.05
0	323	16.2	0.05
0	325	16.3	0.05
0	327	16.4	0.05
0	328	16.49874958	0.05
0	329	16.5	0.05
0	331	16.6	0.05
0	333	16.7	0.05
0	335	16.8	0.05
0	337	16.9	0.05
0	339	17	0.05
0	340	17.018901007	0.05
0	341	17.1	0.05
0	343	17.2	0.05
0	345	17.3	0.05
0	347	17.4	0.05
0	349	17.5	0.05
0	351	17.6	0.05
0	352	17.605819498	0.05
0	353	17.7	0.05
0	355	17.8	0.05
0	357	17.9	0.05
0	359	18	0.05
0	361	18.1	0.05
0	362	18.174483388	0.05
0	363	18.2	0.05
0	365	18.3	0.05
0	367	18.4	0.05
0	369	18.5	0.05
0	371	18.6	0.05
0	372	18.66828184	0.05
0	373	18.7	0.05
0	375	18.8	0.05
0	377	18.9	0.05
0	379	19	0.05
0	381	19.1	0.05
0	382	19.13474608	0.05
0	383	19.2	0.05
0	385	19.3	0.05
0	387	19.4	0.05
0	389	19.5	0.05
0	391	19.6	0.05
0	392	19.615540378	0.0495
0	392	19.615540378	0.0495
0	393	19.7	0.049837838488
0	395	19.8	0.05
0	397	19.9	0.05
0	399	20	0.05
0	401	20.1	0.05
0	402	20.143786369	0.05
0	403	20.2	0.05
0	405	20.3	0.05
0	407	20.4	0.05
0	409	20.5	0.05
0	411	20.6	0.05
0	412	20.66044348	0.05
0	413	20.7	0.05
0	415	20.8	0.05
0	416	20.85281287	0.05
0	417	20.9	0.05
0	419	21	0.05
0	421	21.1	0.05
0	423	21.2	0.05
0	425	21.3	0.05
0	426	21.352536244	0.05
0	427	21.4	0.05
0	429	21.5	0.05
0	431	21.6	0.05
0	433	21.7	0.05
0	435	21.8	0.05
0	436	21.847459045	0.05
0	437	21.9	0.05
0	439	22	0.05
0	441	22.1	0.05
0	443	22.2	0.05
0	445	22.3	0.05
0	446	22.353632875	0.05
0	447	22.4	0.05
0	449	22.5	0.05
0	451	22.6	0.05
0	453	22.7	0.05
0	455	22.8	0.05
0	456	22.899394654	0.05
0	457	22.9	0.05
0	459	23	0.05
0	461	23.08057828677	0.05
0	462	23.1	0.05
0	464	23.2	0.05
0	466	23.3	0.05
0	468	23.4	0.05
0	469	23.414338834	0.05
0	470	23.5	0.05
0	472	23.6	0.05
0	474	23.7	0.05
0	476	23.8	0.05
0	478	23.9	0.0495
0	478	23.9	0.0495
0	480	24	0.0495
0	481	24.009525382	0.0495
0	482	24.1	0.0495
0	484	24.2	0.0495
0	486	24.3	0.0495
0	488	24.4	0.0495
0	490	24.5	0.0495
0	491	24.589080319	0.0495
0	492	24.6	0.0495
0	494	24.7	0.0495
0	496	24.8	0.0495
0	498	24.9	0.0495
0	500	25	0.0495
0	502	25.1	0.0495
0	503	25.11249595	0.0495
0	504	25.2	0.0495
0	506	25.3	0.049005
0	506	25.3	0.049005
0	508	25.4	0.049005
0	510	25.5	0.049005
0	511	25.546269337	0.049005
0	512	25.6	0.049005
0	514	25.7	0.049005
0	516	25.8	0.049005
0	518	25.9	0.049005
0	519	25.985708866	0.049005
0	520	26	0.049005
0	522	26.1	0.049005
0	524	26.2	0.049005
0	526	26.3	0.049005
0	528	26.4	0.049005
0	530	26.5	0.049005
0	531	26.564979094	0.049005
0	532	26.6	0.049005
0	534	26.7	0.04851495
0	534	26.7	0.04851495
0	536	26.8	0.04851495
0	538	26.9	0.04851495
0	540	27	0.04851495
0	541	27.026553976	0.04851495
0	542	27.1	0.04851495
0	544	27.2	0.04851495
0	546	27.3	0.04851495
0	548	27.4	0.04851495
0	549	27.469813663	0.04851495
0	550	27.5	0.04851495
0	552	27.6	0.04851495
0	554	27.7	0.04851495
0	556	27.8	0.04851495
0	558	27.9	0.04851495
0	559	27.965031838	0.04851495
0	560	28	0.04851495
0	562	28.1	0.0480298005
0	562	28.1	0.0480298005
0	564	28.2	0.0480298005
0	566	28.3	0.0480298005
0	568	28.4	0.0480298005
0	570	28.5	0.0480298005
0	571	28.533069391	0.0480298005
0	572	28.6	0.0480298005
0	574	28.7	0.0480298005
0	576	28.8	0.0480298005
0	578	28.9	0.0480298005
0	580	29	0.0480298005
0	581	29.06154058	0.0480298005
0	582	29.1	0.0480298005
0	584	29.2	0.0480298005
0	586	29.3	0.0480298005
0	588	29.4	0.0480298005
0	590	29.5	0.0480298005
0	591	29.599840855	0.0480298005
0	592	29.6	0.0480298005
0	594	29.7	0.0480298005
0	596	29.8	0.0480298005
0	598	29.9	0.0480298005
0	600	30	0.0480298005
0	601	30.097025077	0.0480298005
0	602	30.1	0.0480298005
0	604	30.2	0.0480298005
0	606	30.3	0.0480298005
0	608	30.4	0.0480298005
0	610	30.400645725355	0.0480298005
0	613	30.500645725355	0.0480298005
0	615	30.600645725355	0.0480298005
0	615	30.669165283	0.0480298005
0	617	30.700645725355	0.0480298005
0	619	30.800645725355	0.0480298005
0	621	30.900645725355	0.047549502495
0	621	30.900645725355	0.047549502495
0	623	31.000645725355	0.047549502495
0	625	31.100645725355	0.047549502495
0	627	31.200645725355	0.047549502495
0	627	31.23428674	0.047549502495
0	629	31.300645725355	0.047549502495
0	631	31.400645725355	0.047549502495
0	633	31.500645725355	0.047549502495
0	635	31.600645725355	0.047549502495
0	637	31.700645725355	0.047549502495
0	637	31.758892033	0.047549502495
0	639	31.800645725355	0.047549502495
0	641	31.900645725355	0.047549502495
0	643	32.000645725355	0.047549502495
0	645	32.100645725355	0.047549502495
0	647	32.200645725355	0.047549502495
0	647	32.22552751	0.047549502495
0	649	32.300645725355	0.04707400747005
0	649	32.300645725355	0.04707400747005
0	651	32.400645725355	0.04707400747005
0	653	32.500645725355	0.04707400747005
0	655	32.600645725355	0.04707400747005
0	657	32.700645725355	0.04707400747005
0	657	32.746865437	0.04707400747005
0	659	32.800645725355	0.04707400747005
0	661	32.900645725355	0.04707400747005
0	663	33.000645725355	0.04707400747005
0	665	33.100645725355	0.04707400747005
0	667	33.200645725355	0.04707400747005
0	667	33.253701409	0.04707400747005
0	669	33.300645725355	0.04707400747005
0	671	33.400645725355	0.04707400747005
0	673	33.500645725355	0.04707400747005
0	675	33.600645725355	0.04707400747005
0	677	33.700645725355	0.04707400747005
0	677	33.781542571	0.04660326739535
0	677	33.781542571	0.04660326739535
0	679	33.800645725355	0.04660326739535
0	681	33.900645725355	0.04660326739535
0	683	34.000645725355	0.04660326739535
0	685	34.100645725355	0.04660326739535
0	687	34.200645725355	0.04660326739535
0	687	34.280473402	0.04660326739535
0	689	34.300645725355	0.04660326739535
0	691	34.400645725355	0.04660326739535
0	693	34.500645725355	0.04660326739535
0	695	34.600645725355	0.04660326739535
0	697	34.700645725355	0.04660326739535
0	697	34.779264697	0.04660326739535
0	699	34.800645725355	0.04660326739535
0	701	34.900645725355	0.04660326739535
0	703	35.000645725355	0.04660326739535
0	705	35.100645725355	0.04660326739535
0	707	35.200645725355	0.046137234721396
0	707	35.200645725355	0.046137234721396
0	707	35.25768067	0.046137234721396
0	709	35.300645725355	0.046137234721396
0	711	35.400645725355	0.046137234721396
0	713	35.500645725355	0.046137234721396
0	715	35.600645725355	0.046137234721396
0	717	35.700645725355	0.046137234721396
0	719	35.800645725355	0.046137234721396
0	719	35.889823198	0.046137234721396
0	721	35.900645725355	0.046137234721396
0	723	36.000645725355	0.046137234721396
0	725	36.100645725355	0.046137234721396
0	727	36.200645725355	0.046137234721396
0	729	36.300645725355	0.046137234721396
0	730	36.32961776857	0.046137234721396
0	730	36.357529366	0.046248881111116
0	732	36.400645725355	0.046421346548536
0	733	36.420309088221	0.0465
0	735	36.500645725355	0.046353133083051
0	735	36.500645725355	0.046353133083051
0	736	36.545309088221	0.047
0	738	36.600645725355	0.047221346548536
0	739	36.670309088221	0.0475
0	741	36.700645725355	0.047621346548536
0	742	36.795309088221	0.048
0	744	36.800645725355	0.048021346548536
0	744	36.845805982	0.048201987575116
0	746	36.900645725355	0.048421346548536
0	747	36.920309088221	0.0485
0	749	37.000645725355	0.048821346548536
0	750	37.045309088221	0.049
0	752	37.100645725355	0.049221346548536
0	753	37.170309088221	0.0495
0	755	37.200645725355	0.049621346548536
0	756	37.295309088221	0.05
0	758	37.300645725355	0.05
0	758	37.316552926	0.05
0	760	37.400645725355	0.05
0	762	37.500645725355	0.05
0	764	37.600645725355	0.05
0	766	37.700645725355	0.05
0	768	37.800645725355	0.05
0	768	37.863374221	0.05
0	770	37.900645725355	0.05
0	772	38.000645725355	0.05
0	774	38.100645725355	0.05
0	776	38.200645725355	0.05
0	778	38.300645725355	0.05
0	780	38.400645725355	0.05
0	780	38.471352592	0.05
0	782	38.500645725355	0.05
0	784	38.600645725355	0.05
0	786	38.700645725355	0.05
0	788	38.800645725355	0.05
0	790	38.900645725355	0.05
0	792	39.000645725355	0.05
0	792	39.03529486	0.05
0	794	39.100645725355	0.05
0	796	39.200645725355	0.05
0	798	39.300645725355	0.05
0	800	39.400645725355	0.05
0	802	39.500645725355	0.05
0	804	39.600645725355	0.05
0	806	39.700645725355	0.05
0	806	39.762998614	0.05
0	808	39.800645725355	0.05
0	810	39.900645725355	0.05
0	812	40.000645725355	0.05
0	814	40.100645725355	0.05
0	816	40.200645725355	0.05
0	816	40.26585721	0.05
0	818	40.300645725355	0.05
0	820	40.400645725355	0.05
0	822	40.500645725355	0.05
0	824	40.600645725355	0.05
0	826	40.700645725355	0.05
0	826	40.73312872	0.05
0	828	40.800645725355	0.05
0	830	40.900645725355	0.05
0	832	41.000645725355	0.05
0	834	41.100645725355	0.05
0	834	41.198181376	0.05
0	836	41.200645725355	0.05
0	838	41.300645725355	0.05
0	840	41.400645725355	0.05
0	842	41.500645725355	0.05
0	844	41.600645725355	0.05
0	844	41.693615986	0.05
0	846	41.700645725355	0.05
0	848	41.800645725355	0.05
0	850	41.900645725355	0.05
0	852	42.000645725355	0.05
0	854	42.100645725355	0.05
0	854	42.161832727	0.05
0	856	42.200645725355	0.05
0	858	42.300645725355	0.05
0	860	42.400645725355	0.05
0	862	42.500645725355	0.05
0	864	42.600645725355	0.05
0	864	42.651183553	0.05
0	866	42.700645725355	0.05
0	868	42.800645725355	0.05
0	870	42.900645725355	0.05
0	872	43.000645725355	0.05
0	874	43.100645725355	0.05
0	874	43.199391775	0.05
0	876	43.200645725355	0.05
0	878	43.300645725355	0.05
0	880	43.400645725355	0.05
0	882	43.500645725355	0.05
0	884	43.600645725355	0.05
0	886	43.700645725355	0.05
0	886	43.74668431	0.05
0	888	43.800645725355	0.05
0	890	43.900645725355	0.05
0	892	44.000645725355	0.05
0	894	44.100645725355	0.05
0	896	44.200645725355	0.05
0	896	44.237750299	0.05
0	898	44.300645725355	0.05
0	900	44.400645725355	0.05
0	902	44.500645725355	0.05
0	904	44.600645725355	0.05
0	906	44.700645725355	0.05
0	906	44.75574892	0.05
0	908	44.800645725355	0.05
0	910	44.900645725355	0.05
0	912	45.000645725355	0.05
0	914	45.100645725355	0.05
0	916	45.200645725355	0.05
0	918	45.300645725355	0.05
0	920	45.400645725355	0.05
0	920	45.469521829	0.05
0	922	45.500645725355	0.05
0	924	45.600645725355	0.05
0	926	45.700645725355	0.05
0	928	45.800645725355	0.05
0	930	45.900645725355	0.05
0	930	45.960733558	0.05
0	932	46.000645725355	0.05
0	934	46.100645725355	0.05
0	936	46.200645725355	0.05
0	938	46.300645725355	0.05
0	940	46.400645725355	0.05
0	940	46.432947328	0.05
0	942	46.500645725355	0.05
0	944	46.600645725355	0.05
0	946	46.700645725355	0.05
0	948	46.800645725355	0.05
0	948	46.861925647	0.05
0	950	46.900645725355	0.05
0	953	47.000645725355	0.05
0	955	47.100645725355	0.05
0	957	47.200645725355	0.05
0	959	47.300645725355	0.05
0	959	47.33045686	0.05
0	961	47.400645725355	0.05
0	963	47.500645725355	0.05
0	965	47.600645725355	0.0495
0	965	47.600645725355	0.0495
0	967	47.700645725355	0.0499
0	969	47.800645725355	0.05
0	969	47.813145754	0.05
0	971	47.900645725355	0.05
0	973	48.000645725355	0.05
0	974	48.051571659266	0.05
0	976	48.100645725355	0.05
0	978	48.200645725355	0.05
0	980	48.300645725355	0.05
0	980	48.312634198	0.05
0	982	48.400645725355	0.05
0	984	48.500645725355	0.05
0	986	48.600645725355	0.05
0	988	48.700645725355	0.05
0	990	48.800645725355	0.05
0	990	48.8768338	0.05
0	992	48.900645725355	0.05
0	994	49.000645725355	0.05
0	996	49.100645725355	0.05
0	998	49.200645725355	0.05
0	1000	49.300645725355	0.05
0	1000	49.398175978	0.05
0	1002	49.400645725355	0.05
0	1004	49.500645725355	0.05
0	1006	49.600645725355	0.05
0	1008	49.683911550415	0.05
0	1009	49.700645725355	0.05
0	1011	49.800645725355	0.05
0	1012	49.896214108	0.05
0	1013	49.900645725355	0.05
0	1015	50.000645725355	0.05
0	1017	50.100645725355	0.05
0	1019	50.200645725355	0.05
0	1021	50.300645725355	0.05
0	1023	50.400645725355	0.0495
0	1023	50.400645725355	0.0495
0	1024	50.481626563	0.04982392335058
0	1025	50.500645725355	0.0499
0	1027	50.600645725355	0.05
0	1029	50.700645725355	0.05
0	1031	50.800645725355	0.05
0	1033	50.900645725355	0.05
0	1035	51.000645725355	0.05
0	1035	51.018053689	0.05
0	1037	51.100645725355	0.05
0	1039	51.200645725355	0.05
0	1041	51.300645725355	0.05
0	1043	51.400645725355	0.05
0	1045	51.500645725355	0.05
0	1046	51.551453131	0.05
0	1047	51.600645725355	0.05
0	1049	51.700645725355	0.05
0	1051	51.800645725355	0.0495
0	1051	51.800645725355	0.0495
0	1053	51.900645725355	0.0499
0	1055	52.000645725355	0.05
0	1055	52.01595463	0.05
0	1058	52.100645725355	0.05
0	1061	52.200645725355	0.05
0	1063	52.300645725355	0.05
0	1065	52.400645725355	0.05
0	1067	52.500645725355	0.05
0	1068	52.5634927	0.05
0	1069	52.600645725355	0.05
0	1071	52.700645725355	0.05
0	1073	52.800645725355	0.05
0	1075	52.900645725355	0.05
0	1077	53.000645725355	0.05
0	1079	53.100645725355	0.05
0	1079	53.131827409	0.0495
0	1079	53.131827409	0.0495
0	1081	53.200645725355	0.04977527326542
0	1083	53.300645725355	0.05
0	1085	53.400645725355	0.05
0	1087	53.500645725355	0.05
0	1089	53.600645725355	0.05
0	1089	53.642400868	0.05
0	1091	53.700645725355	0.05
0	1093	53.800645725355	0.05
0	1095	53.900645725355	0.05
0	1096	53.920589317955	0.05
0	1098	54.020589317955	0.05
0	1100	54.120589317955	0.05
0	1101	54.20485951	0.05
0	1102	54.220589317955	0.05
0	1104	54.320589317955	0.05
0	1106	54.420589317955	0.05
0	1108	54.520589317955	0.05
0	1110	54.620589317955	0.05
0	1111	54.668204521	0.05
0	1112	54.720589317955	0.05
0	1114	54.820589317955	0.05
0	1116	54.920589317955	0.05
0	1118	55.020589317955	0.05
0	1120	55.120589317955	0.05
0	1122	55.220589317955	0.05
0	1123	55.297448401	0.05
0	1124	55.320589317955	0.05
0	1126	55.420589317955	0.05
0	1128	55.520589317955	0.05
0	1130	55.620589317955	0.05
0	1132	55.720589317955	0.05
0	1133	55.751247496	0.05
0	1134	55.820589317955	0.05
0	1136	55.920589317955	0.05
0	1138	56.020589317955	0.05
0	1140	56.120589317955	0.05
0	1142	56.220589317955	0.05
0	1143	56.256920476	0.05
0	1144	56.320589317955	0.05
0	1146	56.420589317955	0.05
0	1148	56.520589317955	0.05
0	1150	56.620589317955	0.05
0	1152	56.720589317955	0.05
0	1154	56.820589317955	0.05
0	1154	56.82978277	0.05
0	1156	56.920589317955	0.05
0	1158	57.020589317955	0.05
0	1160	57.120589317955	0.05
0	1162	57.220589317955	0.05
0	1164	57.320589317955	0.05
0	1165	57.372979849	0.0495
0	1165	57.372979849	0.0495
0	1166	57.420589317955	0.04969043787582
0	1168	57.520589317955	0.05
0	1170	57.620589317955	0.05
0	1172	57.720589317955	0.05
0	1174	57.820589317955	0.05
0	1175	57.850586239	0.05
0	1176	57.920589317955	0.05
0	1178	58.020589317955	0.05
0	1180	58.120589317955	0.05
0	1182	58.220589317955	0.05
0	1183	58.303951228	0.05
0	1184	58.320589317955	0.05
0	1186	58.420589317955	0.05
0	1188	58.520589317955	0.05
0	1190	58.620589317955	0.05
0	1192	58.720589317955	0.05
0	1192	58.737745441	0.05
0	1194	58.820589317955	0.05
0	1196	58.920589317955	0.05
0	1198	59.020589317955	0.05
0	1200	59.120589317955	0.05
0	1202	59.220589317955	0.05
0	1204	59.320589317955	0.05
0	1205	59.371243498	0.05
0	1206	59.420589317955	0.05
0	1208	59.520589317955	0.05
0	1210	59.620589317955	0.05
0	1212	59.720589317955	0.05
0	1214	59.820589317955	0.05
0	1216	59.902186451783	0.05
0	1216	59.923935982	0.05
0	1218	60.002186451783	0.05
0	1220	60.102186451783	0.05
0	1222	60.202186451783	0.05
0	1224	60.302186451783	0.05
0	1226	60.402186451783	0.05
0	1228	60.502186451783	0.05
0	1228	60.540568042	0.05
0	1230	60.602186451783	0.05
0	1232	60.702186451783	0.05
0	1234	60.802186451783	0.05
0	1236	60.902186451783	0.05
0	1238	61.002186451783	0.05
0	1240	61.102186451783	0.05
0	1242	61.202186451783	0.05
0	1243	61.255508761	0.05
0	1244	61.302186451783	0.05
0	1246	61.402186451783	0.05
0	1248	61.502186451783	0.05
0	1250	61.602186451783	0.05
0	1252	61.702186451783	0.05
0	1254	61.802186451783	0.05
0	1256	61.902186451783	0.05
0	1256	61.907791933	0.05
0	1258	62.002186451783	0.05
0	1260	62.102186451783	0.05
0	1262	62.202186451783	0.05
0	1264	62.302186451783	0.05
0	1265	62.385721429	0.05
0	1266	62.402186451783	0.05
0	1268	62.502186451783	0.05
0	1270	62.602186451783	0.05
0	1272	62.702186451783	0.05
0	1274	62.802186451783	0.05
0	1275	62.879099755	0.05
0	1276	62.902186451783	0.05
0	1278	63.002186451783	0.05
0	1280	63.102186451783	0.05
0	1282	63.202186451783	0.05
0	1284	63.302186451783	0.05
0	1285	63.385593622	0.05
0	1286	63.402186451783	0.05
0	1288	63.502186451783	0.05
0	1290	63.602186451783	0.05
0	1292	63.702186451783	0.05
0	1294	63.802186451783	0.05
0	1294	63.841902922	0.05
0	1296	63.902186451783	0.05
0	1298	64.002186451783	0.05
0	1300	64.102186451783	0.05
0	1302	64.202186451783	0.05
0	1303	64.284488764	0.05
0	1304	64.302186451783	0.05
0	1306	64.402186451783	0.05
0	1308	64.502186451783	0.05
0	1310	64.602186451783	0.05
0	1312	64.702186451783	0.05
0	1312	64.72035049	0.05
0	1314	64.802186451783	0.05
0	1316	64.902186451783	0.05
0	1318	65.002186451783	0.05
0	1320	65.102186451783	0.05
0	1322	65.202186451783	0.05
0	1324	65.302186451783	0.05
0	1324	65.311718092	0.05
0	1326	65.402186451783	0.05
0	1328	65.502186451783	0.05
0	1330	65.602186451783	0.05
0	1332	65.702186451783	0.05
0	1334	65.802186451783	0.05
0	1335	65.871258241	0.05
0	1336	65.902186451783	0.05
0	1338	66.002186451783	0.05
0	1340	66.102186451783	0.05
0	1341	66.118798181382	0.05
0	1343	66.218798181382	0.05
0	1345	66.318798181382	0.05
0	1345	66.347399221	0.05
0	1347	66.418798181382	0.05
0	1349	66.518798181382	0.05
0	1351	66.618798181382	0.05
0	1353	66.718798181382	0.05
0	1355	66.818798181382	0.05
0	1356	66.873598984	0.05
0	1357	66.918798181382	0.05
0	1359	67.018798181382	0.05
0	1361	67.118798181382	0.05
0	1363	67.218798181382	0.05
0	1365	67.318798181382	0.05
0	1366	67.377070531	0.05
0	1367	67.418798181382	0.05
0	1369	67.518798181382	0.05
0	1371	67.618798181382	0.05
0	1373	67.718798181382	0.05
0	1375	67.818798181382	0.05
0	1376	67.870440319	0.05
0	1377	67.918798181382	0.05
0	1379	68.018798181382	0.05
0	1381	68.118798181382	0.05
0	1383	68.218798181382	0.05
0	1385	68.318798181382	0.05
0	1387	68.418798181382	0.05
0	1388	68.471936842	0.05
0	1389	68.518798181382	0.05
0	1391	68.618798181382	0.05
0	1393	68.718798181382	0.05
0	1395	68.818798181382	0.0495
0	1395	68.818798181382	0.0495
0	1397	68.918798181382	0.0499
0	1399	69.018798181382	0.05
0	1399	69.033988762	0.05
0	1401	69.118798181382	0.05
0	1403	69.218798181382	0.05
0	1405	69.318798181382	0.05
0	1407	69.418798181382	0.05
0	1409	69.518798181382	0.05
0	1410	69.570583744	0.05
0	1411	69.618798181382	0.05
0	1413	69.718798181382	0.05
0	1415	69.818798181382	0.05
0	1417	69.918798181382	0.05
0	1419	70.018798181382	0.05
0	1421	70.118798181382	0.05
0	1423	70.218798181382	0.05
0	1423	70.219459354	0.0495
0	1423	70.219459354	0.0495
0	1425	70.318798181382	0.049897355309528
0	1427	70.418798181382	0.05
0	1429	70.518798181382	0.05
0	1431	70.618798181382	0.05
0	1432	70.713253843	0.05
0	1433	70.718798181382	0.05
0	1435	70.818798181382	0.05
0	1437	70.918798181382	0.05
0	1439	71.018798181382	0.05
0	1441	71.118798181382	0.05
0	1442	71.211214	0.05
0	1443	71.218798181382	0.05
0	1445	71.318798181382	0.05
0	1447	71.418798181382	0.05
0	1449	71.518798181382	0.05
0	1451	71.618798181382	0.05
0	1453	71.718798181382	0.0495
0	1453	71.718798181382	0.0495
0	1453	71.725354636	0.049526225818472
0	1455	71.818798181382	0.0499
0	1457	71.918798181382	0.05
0	1459	72.018798181382	0.05
0	1461	72.118798181382	0.05
0	1463	72.218798181382	0.05
0	1465	72.318798181382	0.05
0	1467	72.418798181382	0.05
0	1467	72.428583802	0.05
0	1469	72.518798181382	0.05
0	1471	72.618798181382	0.05
0	1473	72.718798181382	0.05
0	1475	72.818798181382	0.05
0	1477	72.918798181382	0.05
0	1479	73.018798181382	0.05
0	1480	73.092351031	0.05
0	1481	73.118798181382	0.0495
0	1481	73.118798181382	0.0495
0	1483	73.218798181382	0.0499
0	1485	73.318798181382	0.05
0	1487	73.418798181382	0.05
0	1489	73.518798181382	0.05
0	1490	73.575341128	0.05
0	1491	73.618798181382	0.05
0	1493	73.718798181382	0.05
0	1495	73.818798181382	0.05
0	1497	73.918798181382	0.05
0	1499	74.018798181382	0.05
0	1500	74.107544137	0.05
0	1501	74.118798181382	0.05
0	1503	74.218798181382	0.05
0	1505	74.318798181382	0.05
0	1507	74.418798181382	0.05
0	1509	74.518798181382	0.05
0	1511	74.618798181382	0.0495
0	1511	74.618798181382	0.0495
0	1512	74.718356905	0.049898234894472
0	1513	74.718798181382	0.0499
0	1515	74.818798181382	0.05
0	1517	74.918798181382	0.05
0	1519	75.018798181382	0.05
0	1521	75.118798181382	0.05
0	1522	75.178171642	0.05
0	1523	75.218798181382	0.05
0	1525	75.318798181382	0.05
0	1527	75.418798181382	0.05
0	1528	75.460641103	0.05
0	1529	75.518798181382	0.05
0	1530	75.521237615517	0.05
0	1532	75.621237615517	0.05
0	1534	75.721237615517	0.05
0	1536	75.821237615517	0.05
0	1538	75.921237615517	0.05
0	1539	75.959972563	0.05
0	1540	76.021237615517	0.05
0	1542	76.121237615517	0.05
0	1544	76.221237615517	0.05
0	1546	76.321237615517	0.05
0	1548	76.421237615517	0.05
0	1549	76.490672389	0.05
0	1550	76.521237615517	0.05
0	1552	76.621237615517	0.05
0	1554	76.721237615517	0.05
0	1556	76.821237615517	0.05
0	1558	76.921237615517	0.05
0	1559	76.98145783	0.05
0	1560	77.021237615517	0.05
0	1562	77.121237615517	0.05
0	1564	77.221237615517	0.05
0	1566	77.321237615517	0.05
0	1568	77.421237615517	0.05
0	1569	77.516831473	0.05
0	1570	77.521237615517	0.05
0	1572	77.621237615517	0.05
0	1574	77.721237615517	0.05
0	1576	77.821237615517	0.05
0	1578	77.921237615517	0.05
0	1580	78.021237615517	0.05
0	1580	78.022296949	0.05
0	1582	78.121237615517	0.05
0	1584	78.221237615517	0.05
0	1586	78.321237615517	0.05
0	1588	78.421237615517	0.05
0	1590	78.521237615517	0.05
0	1591	78.588185779	0.05
0	1592	78.621237615517	0.05
0	1594	78.721237615517	0.05
0	1596	78.821237615517	0.05
0	1598	78.921237615517	0.05
0	1600	79.021237615517	0.05
0	1601	79.105439602	0.05
0	1602	79.121237615517	0.05
0	1604	79.221237615517	0.05
0	1606	79.321237615517	0.05
0	1608	79.421237615517	0.05
0	1610	79.521237615517	0.05
0	1612	79.621237615517	0.05
0	1613	79.649808418	0.05
0	1614	79.721237615517	0.05
0	1616	79.821237615517	0.05
0	1618	79.921237615517	0.05
0	1620	80.021237615517	0.05
0	1622	80.121237615517	0.05
0	1623	80.17692115	0.0495
0	1623	80.17692115	0.0495
0	1624	80.221237615517	0.049677265862068
0	1626	80.321237615517	0.05
0	1628	80.421237615517	0.05
0	1630	80.521237615517	0.05
0	1632	80.621237615517	0.05
0	1632	80.634720814	0.05
0	1634	80.696430006341	0.05
0	1636	80.796430006341	0.05
0	1638	80.896430006341	0.05
0	1640	80.996430006341	0.05
0	1640	81.044971792	0.05
0	1642	81.096430006341	0.05
0	1644	81.196430006341	0.05
0	1646	81.296430006341	0.05
0	1648	81.396430006341	0.05
0	1650	81.496430006341	0.05
0	1650	81.536251984	0.05
0	1652	81.596430006341	0.05
0	1654	81.696430006341	0.05
0	1656	81.796430006341	0.05
0	1658	81.896430006341	0.05
0	1660	81.996430006341	0.05
0	1662	82.096430006341	0.05
0	1662	82.117335058	0.05
0	1664	82.196430006341	0.05
0	1666	82.296430006341	0.05
0	1668	82.396430006341	0.05
0	1670	82.496430006341	0.05
0	1672	82.596430006341	0.05
0	1673	82.668308389	0.05
0	1674	82.696430006341	0.05
0	1676	82.796430006341	0.05
0	1678	82.896430006341	0.05
0	1680	82.996430006341	0.05
0	1682	83.096430006341	0.05
0	1683	83.178513652	0.05
0	1684	83.196430006341	0.05
0	1686	83.296430006341	0.05
0	1688	83.396430006341	0.05
0	1690	83.496430006341	0.05
0	1692	83.596430006341	0.05
0	1693	83.678643742	0.05
0	1694	83.696430006341	0.05
0	1696	83.796430006341	0.05
0	1698	83.896430006341	0.05
0	1700	83.996430006341	0.05
0	1702	84.096430006341	0.05
0	1703	84.153115615	0.05
0	1704	84.196430006341	0.05
0	1706	84.296430006341	0.05
0	1708	84.396430006341	0.05
0	1709	84.422052754194	0.0495
0	1709	84.422052754194	0.0495
0	1712	84.522052754194	0.0499
0	1714	84.622052754194	0.05
0	1716	84.722052754194	0.05
0	1716	84.725585065	0.05
0	1718	84.822052754194	0.05
0	1720	84.922052754194	0.05
0	1722	85.022052754194	0.05
0	1724	85.122052754194	0.05
0	1726	85.222052754194	0.05
0	1727	85.257140626	0.05
0	1728	85.322052754194	0.05
0	1730	85.422052754194	0.05
0	1732	85.522052754194	0.05
0	1734	85.622052754194	0.05
0	1736	85.722052754194	0.05
0	1737	85.748330002	0.05
0	1738	85.822052754194	0.0495
0	1738	85.822052754194	0.0495
0	1740	85.922052754194	0.0499
0	1742	86.022052754194	0.05
0	1744	86.122052754194	0.05
0	1745	86.211241243	0.05
0	1746	86.222052754194	0.05
0	1748	86.322052754194	0.05
0	1750	86.422052754194	0.05
0	1752	86.522052754194	0.05
0	1754	86.622052754194	0.05
0	1755	86.701331857	0.05
0	1756	86.722052754194	0.05
0	1758	86.822052754194	0.05
0	1760	86.922052754194	0.05
0	1762	87.022052754194	0.05
0	1764	87.122052754194	0.05
0	1766	87.222052754194	0.05
0	1766	87.227383195	0.0495
0	1766	87.227383195	0.0495
0	1768	87.322052754194	0.049878678236776
0	1770	87.422052754194	0.05
0	1772	87.522052754194	0.05
0	1774	87.622052754194	0.05
0	1775	87.709617187	0.05
0	1776	87.722052754194	0.05
0	1778	87.822052754194	0.05
0	1780	87.922052754194	0.05
0	1782	88.022052754194	0.05
0	1784	88.122052754194	0.05
0	1786	88.222052754194	0.05
0	1786	88.231234021	0.05
0	1788	88.322052754194	0.05
0	1790	88.422052754194	0.05
0	1792	88.522052754194	0.05
0	1794	88.622052754194	0.05
0	1796	88.722052754194	0.0495
0	1796	88.722052754194	0.0495
0	1797	88.762691362	0.049662554431224
0	1798	88.822052754194	0.0499
0	1800	88.922052754194	0.05
0	1802	89.022052754194	0.05
0	1804	89.122052754194	0.05
0	1805	89.168217253	0.05
0	1806	89.222052754194	0.05
0	1808	89.322052754194	0.05
0	1810	89.422052754194	0.05
0	1812	89.522052754194	0.05
0	1813	89.612037859	0.05
0	1814	89.622052754194	0.05
0	1816	89.722052754194	0.05
0	1818	89.822052754194	0.05
0	1820	89.922052754194	0.05
0	1822	90.022052754194	0.05
0	1824	90.122052754194	0.0495
0	1824	90.122052754194	0.0495
0	1824	90.135650989	0.049554392939224
0	1826	90.222052754194	0.0499
0	1828	90.322052754194	0.05
0	1830	90.422052754194	0.05
0	1832	90.522052754194	0.05
0	1834	90.622052754194	0.05
0	1836	90.722052754194	0.05
0	1837	90.802262833	0.05
0	1838	90.822052754194	0.05
0	1840	90.922052754194	0.05
0	1842	91.022052754194	0.05
0	1844	91.122052754194	0.05
0	1846	91.222052754194	0.05
0	1847	91.309514221	0.05
0	1848	91.322052754194	0.05
0	1850	91.422052754194	0.05
0	1852	91.522052754194	0.0495
0	1852	91.522052754194	0.0495
0	1854	91.622052754194	0.0499
0	1856	91.722052754194	0.05
0	1858	91.822052754194	0.05
0	1860	91.922052754194	0.05
0	1861	91.988741632	0.05
0	1862	92.022052754194	0.05
0	1864	92.122052754194	0.05
0	1866	92.222052754194	0.05
0	1868	92.322052754194	0.05
0	1870	92.422052754194	0.05
0	1872	92.522052754194	0.05
0	1874	92.622052754194	0.05
0	1875	92.705587612	0.05
0	1876	92.722052754194	0.05
0	1878	92.822052754194	0.05
0	1880	92.922052754194	0.05
0	1882	93.022052754194	0.0495
0	1882	93.022052754194	0.0495
0	1884	93.122052754194	0.0499
0	1886	93.222052754194	0.05
0	1888	93.322052754194	0.05
0	1890	93.422052754194	0.05
0	1891	93.518324617	0.05
0	1892	93.522052754194	0.05
0	1894	93.622052754194	0.05
0	1896	93.722052754194	0.05
0	1898	93.822052754194	0.05
0	1900	93.922052754194	0.05
0	1902	94.022052754194	0.05
0	1904	94.122052754194	0.05
0	1906	94.222052754194	0.05
0	1907	94.269659182	0.05
0	1908	94.322052754194	0.05
0	1910	94.422052754194	0.05
0	1912	94.522052754194	0.0495
0	1912	94.522052754194	0.0495
0	1914	94.622052754194	0.0499
0	1916	94.722052754194	0.05
0	1918	94.822052754194	0.05
0	1920	94.922052754194	0.05
0	1921	94.977100801	0.05
0	1922	95.022052754194	0.05
0	1924	95.122052754194	0.05
0	1926	95.222052754194	0.05
0	1928	95.322052754194	0.05
0	1930	95.422052754194	0.05
0	1932	95.522052754194	0.05
0	1934	95.622052754194	0.05
0	1934	95.63661298	0.05
0	1936	95.722052754194	0.05
0	1938	95.822052754194	0.05
0	1940	95.922052754194	0.05
0	1942	96.022052754194	0.0495
0	1942	96.022052754194	0.0495
0	1943	96.085635589	0.049754331339224
0	1944	96.122052754194	0.0499
0	1946	96.222052754194	0.05
0	1948	96.322052754194	0.05
0	1950	96.422052754194	0.05
0	1952	96.522052754194	0.05
0	1954	96.622052754194	0.05
0	1956	96.722052754194	0.05
0	1957	96.752050936	0.05
0	1958	96.822052754194	0.05
0	1960	96.922052754194	0.05
0	1962	97.022052754194	0.05
0	1964	97.122052754194	0.05
0	1966	97.222052754194	0.05
0	1967	97.284285235	0.05
0	1968	97.322052754194	0.05
0	1970	97.422052754194	0.0495
0	1970	97.422052754194	0.0495
0	1972	97.522052754194	0.0499
0	1974	97.622052754194	0.05
0	1976	97.722052754194	0.05
0	1978	97.822052754194	0.05
0	1978	97.838109052	0.05
0	1980	97.922052754194	0.05
0	1982	98.022052754194	0.05
0	1984	98.122052754194	0.05
0	1986	98.222052754194	0.05
0	1988	98.322052754194	0.05
0	1989	98.368709206	0.05
0	1990	98.422052754194	0.05
0	1992	98.522052754194	0.05
0	1994	98.622052754194	0.05
0	1996	98.722052754194	0.05
0	1998	98.822052754194	0.05
0	1998	98.834226592	0.0495
0	1998	98.834226592	0.0495
0	2000	98.922052754194	0.049851304648776
0	2002	99.022052754194	0.05
0	2004	99.122052754194	0.05
0	2006	99.222052754194	0.05
0	2008	99.322052754194	0.05
0	2010	99.422052754194	0.05
0	2012	99.522052754194	0.05
0	2012	99.523619344	0.05
0	2015	99.622052754194	0.05
0	2017	99.722052754194	0.05
0	2019	99.822052754194	0.05
0	2021	99.922052754194	0.05
0	2023	100.022052754194	0.05
0	2023	100.074222517	0.05
0	2025	100.122052754194	0.05
0	2027	100.222052754194	0.05
0	2029	100.322052754194	0.05
0	2031	100.422052754194	0.05
0	2033	100.522052754194	0.05
0	2033	100.588024852	0.05
0	2035	100.622052754194	0.05
0	2037	100.722052754194	0.05
0	2039	100.822052754194	0.05
0	2041	100.922052754194	0.05
0	2043	101.022052754194	0.05
0	2045	101.122052754194	0.05
0	2045	101.129663629	0.05
0	2047	101.222052754194	0.05
0	2049	101.322052754194	0.05
0	2051	101.422052754194	0.05
0	2053	101.522052754194	0.05
0	2053	101.595746533	0.05
0	2055	101.622052754194	0.05
0	2057	101.722052754194	0.05
0	2059	101.822052754194	0.05
0	2061	101.922052754194	0.05
0	2063	102.022052754194	0.05
0	2063	102.089448169	0.05
0	2065	102.122052754194	0.05
0	2067	102.222052754194	0.05
0	2069	102.322052754194	0.05
0	2071	102.422052754194	0.05
0	2073	102.522052754194	0.05
0	2075	102.622052754194	0.05
0	2075	102.66590074	0.05
0	2077	102.722052754194	0.05
0	2079	102.822052754194	0.05
0	2081	102.922052754194	0.05
0	2083	103.022052754194	0.05
0	2085	103.122052754194	0.05
0	2085	103.185367429	0.05
0	2087	103.222052754194	0.05
0	2089	103.322052754194	0.05
0	2091	103.422052754194	0.05
0	2093	103.522052754194	0.05
0	2095	103.622052754194	0.05
0	2095	103.68159835	0.05
0	2097	103.722052754194	0.05
0	2099	103.822052754194	0.05
0	2101	103.922052754194	0.05
0	2103	104.022052754194	0.05
0	2105	104.122052754194	0.05
0	2105	104.153188267	0.05
0	2107	104.222052754194	0.05
0	2109	104.322052754194	0.05
0	2111	104.422052754194	0.05
0	2113	104.522052754194	0.05
0	2115	104.622052754194	0.05
0	2115	104.635926805	0.05
0	2117	104.722052754194	0.05
0	2119	104.822052754194	0.05
0	2121	104.922052754194	0.05
0	2123	105.022052754194	0.05
0	2123	105.072431209	0.05
0	2125	105.122052754194	0.05
0	2127	105.222052754194	0.05
0	2129	105.322052754194	0.05
0	2131	105.422052754194	0.05
0	2132	105.513190006	0.05
0	2133	105.522052754194	0.05
0	2135	105.622052754194	0.05
0	2137	105.722052754194	0.05
0	2139	105.822052754194	0.05
0	2141	105.922052754194	0.05
0	2141	105.989636845	0.05
0	2143	106.022052754194	0.05
0	2145	106.122052754194	0.05
0	2147	106.222052754194	0.05
0	2149	106.322052754194	0.05
0	2151	106.422052754194	0.05
0	2152	106.501087279	0.05
0	2153	106.522052754194	0.05
0	2155	106.622052754194	0.05
0	2157	106.722052754194	0.05
0	2159	106.822052754194	0.05
0	2161	106.922052754194	0.05
0	2161	106.99432876	0.05
0	2163	107.022052754194	0.05
0	2165	107.122052754194	0.05
0	2167	107.222052754194	0.05
0	2169	107.322052754194	0.05
0	2171	107.422052754194	0.05
0	2171	107.486139184	0.05
0	2173	107.522052754194	0.05
0	2175	107.622052754194	0.05
0	2177	107.722052754194	0.05
0	2179	107.822052754194	0.05
0	2181	107.922052754194	0.05
0	2183	108.022052754194	0.05
0	2183	108.042344161	0.05
0	2185	108.122052754194	0.05
0	2187	108.222052754194	0.05
0	2189	108.322052754194	0.05
0	2191	108.422052754194	0.05
0	2193	108.522052754194	0.05
0	2193	108.531298024	0.05
0	2195	108.622052754194	0.05
0	2197	108.722052754194	0.05
0	2199	108.822052754194	0.05
0	2201	108.922052754194	0.05
0	2202	109.020592972	0.05
0	2203	109.022052754194	0.05
0	2205	109.122052754194	0.05
0	2207	109.222052754194	0.05
0	2209	109.322052754194	0.05
0	2211	109.422052754194	0.05
0	2213	109.522052754194	0.05
0	2213	109.54317808	0.05
0	2215	109.622052754194	0.05
0	2217	109.722052754194	0.05
0	2219	109.822052754194	0.05
0	2221	109.922052754194	0.05
0	2223	110.022052754194	0.05
0	2225	110.122052754194	0.05
0	2225	110.188718812	0.05
0	2227	110.222052754194	0.05
0	2229	110.322052754194	0.05
0	2231	110.422052754194	0.05
0	2233	110.522052754194	0.05
0	2235	110.622052754194	0.05
0	2235	110.672725525	0.05
0	2237	110.722052754194	0.05
0	2239	110.822052754194	0.05
0	2241	110.922052754194	0.05
0	2243	111.022052754194	0.05
0	2245	111.122052754194	0.05
0	2246	111.21016762	0.05
0	2247	111.222052754194	0.05
0	2249	111.322052754194	0.05
0	2251	111.422052754194	0.05
0	2253	111.522052754194	0.05
0	2255	111.622052754194	0.05
0	2255	111.641725789	0.05
0	2257	111.722052754194	0.05
0	2259	111.822052754194	0.05
0	2261	111.922052754194	0.05
0	2263	112.022052754194	0.05
0	2264	112.112812333	0.05
0	2265	112.122052754194	0.05
0	2267	112.222052754194	0.05
0	2269	112.322052754194	0.05
0	2271	112.422052754194	0.05
0	2273	112.522052754194	0.05
0	2274	112.60792465	0.05
0	2275	112.622052754194	0.05
0	2277	112.722052754194	0.05
0	2279	112.822052754194	0.05
0	2281	112.922052754194	0.05
0	2283	113.022052754194	0.05
0	2285	113.122052754194	0.05
0	2285	113.160081721	0.05
0	2287	113.222052754194	0.05
0	2289	113.322052754194	0.05
0	2291	113.422052754194	0.05
0	2293	113.522052754194	0.05
0	2295	113.622052754194	0.05
0	2295	113.646457948	0.05
0	2297	113.722052754194	0.05
0	2299	113.822052754194	0.05
0	2301	113.922052754194	0.05
0	2303	114.022052754194	0.05
0	2305	114.122052754194	0.05
0	2305	114.128905192	0.05
0	2307	114.222052754194	0.05
0	2309	114.322052754194	0.05
0	2311	114.422052754194	0.05
0	2313	114.522052754194	0.05
0	2314	114.608743225	0.05
0	2315	114.622052754194	0.05
0	2317	114.722052754194	0.05
0	2319	114.822052754194	0.05
0	2321	114.922052754194	0.05
0	2323	115.022052754194	0.05
0	2325	115.122052754194	0.05
0	2327	115.222052754194	0.05
0	2329	115.322052754194	0.05
0	2329	115.349830111	0.05
0	2331	115.422052754194	0.05
0	2333	115.522052754194	0.05
0	2335	115.622052754194	0.05
0	2337	115.722052754194	0.05
0	2339	115.822052754194	0.05
0	2340	115.919194417	0.0495
0	2340	115.919194417	0.0495
0	2341	115.922052754194	0.049511433348776
0	2343	116.022052754194	0.049911433348776
0	2345	116.122052754194	0.05
0	2347	116.222052754194	0.05
0	2349	116.322052754194	0.05
0	2351	116.422052754194	0.05
0	2351	116.477500405	0.05
0	2353	116.522052754194	0.05
0	2355	116.622052754194	0.05
0	2357	116.722052754194	0.05
0	2359	116.822052754194	0.05
0	2361	116.922052754194	0.05
0	2361	116.957564908	0.05
0	2363	117.022052754194	0.05
0	2365	117.122052754194	0.05
0	2366	117.140397068306	0.05
0	2368	117.240397068306	0.05
0	2370	117.340397068306	0.0495
0	2370	117.340397068306	0.0495
0	2372	117.440397068306	0.0499
0	2374	117.540397068306	0.05
0	2374	117.54161923	0.05
0	2376	117.640397068306	0.05
0	2378	117.740397068306	0.05
0	2380	117.840397068306	0.05
0	2382	117.940397068306	0.05
0	2384	118.040397068306	0.05
0	2386	118.140397068306	0.05
0	2386	118.171916155	0.05
0	2388	118.240397068306	0.05
0	2390	118.340397068306	0.05
0	2392	118.440397068306	0.05
0	2394	118.540397068306	0.05
0	2396	118.640397068306	0.05
0	2398	118.740397068306	0.05
0	2398	118.7634478	0.0495
0	2398	118.7634478	0.0495
0	2400	118.840397068306	0.049807797073224
0	2402	118.940397068306	0.05
0	2404	119.040397068306	0.05
0	2406	119.140397068306	0.05
0	2406	119.190142786	0.05
0	2408	119.240397068306	0.05
0	2410	119.340397068306	0.05
0	2412	119.440397068306	0.05
0	2414	119.540397068306	0.05
0	2416	119.640397068306	0.05
0	2418	119.740397068306	0.05
0	2418	119.743058149	0.05
0	2420	119.840397068306	0.05
0	2422	119.940397068306	0.05
0	2424	120.040397068306	0.05
0	2426	120.140397068306	0.05
0	2426	120.169958848	0.0495
0	2426	120.169958848	0.0495
0	2428	120.240397068306	0.049781752881224
0	2430	120.340397068306	0.05
0	2432	120.440397068306	0.05
0	2434	120.540397068306	0.05
0	2434	120.572240482	0.05
0	2436	120.640397068306	0.05
0	2438	120.740397068306	0.05
0	2440	120.840397068306	0.05
0	2442	120.940397068306	0.05
0	2444	121.040397068306	0.05
0	2446	121.140397068306	0.05
0	2446	121.166233414	0.05
0	2448	121.240397068306	0.05
0	2450	121.340397068306	0.05
0	2452	121.440397068306	0.05
0	2454	121.540397068306	0.05
0	2455	121.624476766	0.05
0	2456	121.640397068306	0.05
0	2458	121.740397068306	0.05
0	2460	121.840397068306	0.05
0	2462	121.940397068306	0.05
0	2464	122.040397068306	0.05
0	2465	122.112957085	0.05
0	2466	122.140397068306	0.05
0	2468	122.240397068306	0.05
0	2470	122.340397068306	0.05
0	2472	122.440397068306	0.05
0	2474	122.540397068306	0.05
0	2475	122.599811323	0.05
0	2476	122.640397068306	0.05
0	2478	122.740397068306	0.05
0	2480	122.840397068306	0.05
0	2482	122.940397068306	0.05
0	2484	123.040397068306	0.0495
0	2484	123.040397068306	0.0495
0	2484	123.063384079	0.049591948042776
0	2486	123.140397068306	0.0499
0	2488	123.240397068306	0.05
0	2490	123.340397068306	0.05
0	2492	123.440397068306	0.05
0	2493	123.529948849	0.05
0	2494	123.540397068306	0.05
0	2496	123.640397068306	0.05
0	2498	123.740397068306	0.05
0	2500	123.840397068306	0.05
0	2502	123.940397068306	0.05
0	2502	123.992311063	0.05
0	2504	124.040397068306	0.05
0	2506	124.140397068306	0.05
0	2508	124.240397068306	0.05
0	2510	124.340397068306	0.05
0	2512	124.440397068306	0.0495
0	2512	124.440397068306	0.0495
0	2513	124.507654837	0.049769031074776
0	2514	124.540397068306	0.0499
0	2516	124.640397068306	0.05
0	2518	124.740397068306	0.05
0	2520	124.840397068306	0.05
0	2522	124.940397068306	0.05
0	2523	125.021270905	0.05
0	2524	125.040397068306	0.05
0	2526	125.140397068306	0.05
0	2528	125.240397068306	0.05
0	2530	125.340397068306	0.05
0	2532	125.440397068306	0.05
0	2534	125.540397068306	0.05
0	2534	125.543706049	0.05
0	2536	125.640397068306	0.05
0	2538	125.740397068306	0.05
0	2540	125.840397068306	0.0495
0	2540	125.840397068306	0.0495
0	2542	125.940397068306	0.0499
0	2542	125.968734376	0.05
0	2544	126.040397068306	0.05
0	2546	126.140397068306	0.05
0	2548	126.240397068306	0.05
0	2550	126.340397068306	0.05
0	2552	126.440397068306	0.05
0	2553	126.523717444	0.05
0	2554	126.540397068306	0.05
0	2556	126.640397068306	0.05
0	2558	126.740397068306	0.05
0	2560	126.840397068306	0.05
0	2562	126.940397068306	0.05
0	2564	127.040397068306	0.05
0	2564	127.064622844	0.05
0	2566	127.140397068306	0.05
0	2568	127.240397068306	0.0495
0	2568	127.240397068306	0.0495
0	2570	127.340397068306	0.0499
0	2572	127.440397068306	0.05
0	2573	127.539942268	0.05
0	2574	127.540397068306	0.05
0	2576	127.640397068306	0.05
0	2578	127.740397068306	0.05
0	2580	127.840397068306	0.05
0	2582	127.940397068306	0.05
0	2583	128.00584075	0.05
0	2584	128.040397068306	0.05
0	2586	128.140397068306	0.05
0	2588	128.240397068306	0.05
0	2590	128.340397068306	0.05
0	2592	128.440397068306	0.05
0	2593	128.508942247	0.05
0	2594	128.540397068306	0.05
0	2596	128.640397068306	0.0495
0	2596	128.640397068306	0.0495
0	2598	128.740397068306	0.0499
0	2600	128.840397068306	0.05
0	2602	128.940397068306	0.05
0	2604	129.040397068306	0.05
0	2604	129.056944105	0.05
0	2606	129.140397068306	0.05
0	2608	129.240397068306	0.05
0	2610	129.340397068306	0.05
0	2612	129.440397068306	0.05
0	2614	129.540397068306	0.05
0	2614	129.544406044	0.05
0	2616	129.640397068306	0.05
0	2618	129.740397068306	0.05
0	2620	129.840397068306	0.05
0	2622	129.940397068306	0.05
0	2624	130.040397068306	0.05
0	2624	130.054400143	0.0495
0	2624	130.054400143	0.0495
0	2626	130.140397068306	0.049843987701224
0	2628	130.240397068306	0.05
0	2630	130.340397068306	0.05
0	2632	130.440397068306	0.05
0	2633	130.532134513	0.05
0	2634	130.540397068306	0.05
0	2636	130.640397068306	0.05
0	2638	130.740397068306	0.05
0	2640	130.840397068306	0.05
0	2642	130.940397068306	0.05
0	2643	131.017592731	0.05
0	2644	131.040397068306	0.05
0	2646	131.140397068306	0.05
0	2648	131.240397068306	0.05
0	2650	131.340397068306	0.05
0	2651	131.438460064	0.05
0	2652	131.440397068306	0.0495
0	2652	131.440397068306	0.0495
0	2654	131.540397068306	0.0499
0	2656	131.640397068306	0.05
0	2657	131.711748313	0.05
0	2658	131.740397068306	0.05
0	2660	131.840397068306	0.05
0	2662	131.940397068306	0.05
0	2664	132.040397068306	0.05
0	2666	132.140397068306	0.05
0	2666	132.196284688	0.05
0	2668	132.240397068306	0.05
0	2670	132.340397068306	0.05
0	2672	132.440397068306	0.05
0	2674	132.540397068306	0.05
0	2676	132.640397068306	0.05
0	2677	132.713590741	0.05
0	2678	132.740397068306	0.05
0	2680	132.840397068306	0.0495
0	2680	132.840397068306	0.0495
0	2682	132.940397068306	0.0499
0	2683	133.010686885	0.05
0	2684	133.040397068306	0.05
0	2686	133.140397068306	0.05
0	2688	133.240397068306	0.05
0	2690	133.340397068306	0.05
0	2692	133.440397068306	0.05
0	2694	133.540397068306	0.05
0	2694	133.540955491	0.05
0	2696	133.640397068306	0.05
0	2698	133.740397068306	0.05
0	2700	133.840397068306	0.05
0	2702	133.940397068306	0.05
0	2703	134.029916368	0.05
0	2704	134.040397068306	0.05
0	2706	134.140397068306	0.05
0	2708	134.240397068306	0.0495
0	2708	134.240397068306	0.0495
0	2710	134.340397068306	0.0499
0	2712	134.440397068306	0.05
0	2714	134.540397068306	0.05
0	2714	134.541890995	0.05
0	2716	134.640397068306	0.05
0	2718	134.740397068306	0.05
0	2720	134.840397068306	0.05
0	2722	134.940397068306	0.05
0	2723	135.008675002	0.05
0	2724	135.040397068306	0.05
0	2726	135.140397068306	0.05
0	2728	135.240397068306	0.05
0	2730	135.340397068306	0.05
0	2732	135.440397068306	0.05
0	2733	135.503789872	0.05
0	2734	135.540397068306	0.05
0	2736	135.640397068306	0.0495
0	2736	135.640397068306	0.0495
0	2738	135.740397068306	0.0499
0	2740	135.840397068306	0.05
0	2742	135.940397068306	0.05
0	2744	136.040397068306	0.05
0	2744	136.046672851	0.05
0	2746	136.140397068306	0.05
0	2748	136.240397068306	0.05
0	2750	136.340397068306	0.05
0	2752	136.440397068306	0.05
0	2754	136.540397068306	0.05
0	2756	136.640397068306	0.05
0	2758	136.740397068306	0.05
0	2759	136.82268577	0.05
0	2760	136.840397068306	0.05
0	2762	136.940397068306	0.05
0	2764	137.040397068306	0.05
0	2766	137.140397068306	0.0495
0	2766	137.140397068306	0.0495
0	2768	137.240397068306	0.0499
0	2770	137.340397068306	0.05
0	2772	137.440397068306	0.05
0	2774	137.540397068306	0.05
0	2774	137.566646458	0.05
0	2776	137.640397068306	0.05
0	2778	137.740397068306	0.05
0	2780	137.840397068306	0.05
0	2782	137.940397068306	0.05
0	2784	138.040397068306	0.05
0	2786	138.140397068306	0.05
0	2786	138.16251598	0.05
0	2788	138.240397068306	0.05
0	2790	138.340397068306	0.05
0	2792	138.440397068306	0.05
0	2794	138.540397068306	0.05
0	2794	138.587423827	0.0495
0	2794	138.587423827	0.0495
0	2796	138.640397068306	0.049711892965224
0	2798	138.740397068306	0.05
0	2800	138.840397068306	0.05
0	2802	138.940397068306	0.05
0	2804	139.040397068306	0.05
0	2806	139.140397068306	0.05
0	2808	139.240397068306	0.05
0	2808	139.253587897	0.05
0	2810	139.340397068306	0.05
0	2812	139.440397068306	0.05
0	2814	139.540397068306	0.05
0	2816	139.640397068306	0.05
0	2818	139.740397068306	0.05
0	2819	139.810043125	0.05
0	2820	139.840397068306	0.05
0	2822	139.940397068306	0.05
0	2824	140.040397068306	0.0495
0	2824	140.040397068306	0.0495
0	2826	140.140397068306	0.0499
0	2828	140.240397068306	0.05
0	2829	140.322441601	0.05
0	2830	140.340397068306	0.05
0	2832	140.440397068306	0.05
0	2834	140.540397068306	0.05
0	2836	140.640397068306	0.05
0	2838	140.740397068306	0.05
0	2840	140.840397068306	0.05
0	2841	140.905739707	0.05
0	2842	140.940397068306	0.05
0	2844	141.040397068306	0.05
0	2846	141.140397068306	0.05
0	2848	141.240397068306	0.05
0	2850	141.340397068306	0.05
0	2852	141.440397068306	0.05
0	2853	141.506908642	0.05
0	2854	141.540397068306	0.05
0	2856	141.640397068306	0.05
0	2858	141.740397068306	0.05
0	2860	141.840397068306	0.05
0	2862	141.940397068306	0.05
0	2862	141.970015726	0.05
0	2864	142.040397068306	0.05
0	2866	142.140397068306	0.05
0	2868	142.240397068306	0.05
0	2870	142.340397068306	0.05
0	2872	142.440397068306	0.05
0	2872	142.455001912	0.05
0	2874	142.540397068306	0.05
0	2876	142.640397068306	0.05
0	2878	142.740397068306	0.05
0	2880	142.840397068306	0.05
0	2882	142.940397068306	0.0495
0	2882	142.940397068306	0.0495
0	2883	143.021975548	0.049826313918776
0	2884	143.040397068306	0.0499
0	2886	143.140397068306	0.05
0	2887	143.162623501406	0.05
0	2889	143.240397068306	0.05
0	2891	143.340397068306	0.05
0	2893	143.440397068306	0.05
0	2895	143.540397068306	0.05
0	2897	143.640397068306	0.05
0	2897	143.645901733	0.05
0	2899	143.740397068306	0.05
0	2901	143.840397068306	0.05
0	2903	143.940397068306	0.05
0	2905	144.040397068306	0.05
0	2907	144.140397068306	0.05
0	2907	144.177510031	0.05
0	2909	144.240397068306	0.05
0	2911	144.340397068306	0.05
0	2913	144.440397068306	0.05
0	2915	144.540397068306	0.05
0	2916	144.613281133	0.05
0	2917	144.640397068306	0.05
0	2919	144.740397068306	0.05
0	2921	144.840397068306	0.05
0	2923	144.940397068306	0.05
0	2925	145.040397068306	0.05
0	2925	145.076723542	0.05
0	2927	145.140397068306	0.05
0	2929	145.240397068306	0.05
0	2931	145.340397068306	0.05
0	2933	145.440397068306	0.05
0	2935	145.540397068306	0.05
0	2935	145.560311059	0.05
0	2937	145.640397068306	0.05
0	2939	145.740397068306	0.05
0	2941	145.840397068306	0.05
0	2941	145.858454593	0.05
0	2943	145.940397068306	0.05
0	2945	146.040397068306	0.05
0	2947	146.140397068306	0.05
0	2949	146.240397068306	0.05
0	2951	146.340397068306	0.05
0	2951	146.352139081	0.05
0	2953	146.440397068306	0.05
0	2955	146.540397068306	0.05
0	2957	146.640397068306	0.05
0	2959	146.740397068306	0.05
0	2960	146.811525535	0.05
0	2961	146.840397068306	0.05
0	2963	146.940397068306	0.05
0	2965	147.040397068306	0.05
0	2967	147.140397068306	0.05
0	2969	147.240397068306	0.05
0	2971	147.340397068306	0.05
0	2971	147.373828561	0.05
0	2973	147.440397068306	0.05
0	2975	147.540397068306	0.05
0	2977	147.640397068306	0.05
0	2979	147.740397068306	0.05
0	2981	147.840397068306	0.05
0	2982	147.932762764	0.05
0	2983	147.940397068306	0.05
0	2985	148.040397068306	0.05
0	2987	148.140397068306	0.05
0	2989	148.240397068306	0.05
0	2991	148.340397068306	0.05
0	2993	148.440397068306	0.05
0	2993	148.480986814	0.05
0	2995	148.540397068306	0.05
0	2997	148.640397068306	0.05
0	2999	148.740397068306	0.05
0	3001	148.840397068306	0.05
0	3003	148.940397068306	0.05
0	3005	149.040397068306	0.05
0	3006	149.099506897	0.05
0	3007	149.140397068306	0.05
0	3009	149.240397068306	0.05
0	3011	149.340397068306	0.05
0	3013	149.440397068306	0.05
0	3015	149.540397068306	0.05
0	3017	149.640397068306	0.05
0	3017	149.676304807	0.05
0	3019	149.740397068306	0.05
0	3021	149.840397068306	0.05
0	3023	149.940397068306	0.05
0	3025	150.040397068306	0.05
0	3027	150.140397068306	0.05
0	3029	150.240397068306	0.05
0	3030	150.321710584	0.05
0	3031	150.340397068306	0.05
0	3033	150.440397068306	0.05
0	3035	150.540397068306	0.05
0	3037	150.640397068306	0.05
0	3039	150.740397068306	0.05
0	3041	150.840397068306	0.05
0	3042	150.930133561	0.05
0	3043	150.940397068306	0.05
0	3045	151.040397068306	0.05
0	3047	151.140397068306	0.05
0	3049	151.240397068306	0.05
0	3051	151.340397068306	0.05
0	3051	151.383603412	0.05
0	3053	151.440397068306	0.05
0	3055	151.540397068306	0.05
0	3057	151.640397068306	0.05
0	3057	151.680869194	0.05
0	3059	151.740397068306	0.05
0	3061	151.840397068306	0.05
0	3063	151.940397068306	0.05
0	3065	152.040397068306	0.05
0	3067	152.140397068306	0.05
0	3067	152.187587356	0.05
0	3069	152.240397068306	0.05
0	3071	152.340397068306	0.05
0	3073	152.440397068306	0.05
0	3075	152.540397068306	0.05
0	3077	152.640397068306	0.05
0	3077	152.685386332	0.05
0	3079	152.740397068306	0.05
0	3081	152.840397068306	0.05
0	3083	152.940397068306	0.05
0	3085	153.040397068306	0.05
0	3087	153.140397068306	0.05
0	3088	153.236756641	0.05
0	3089	153.240397068306	0.05
0	3091	153.340397068306	0.05
0	3093	153.440397068306	0.05
0	3095	153.540397068306	0.05
0	3097	153.640397068306	0.05
0	3099	153.740397068306	0.05
0	3099	153.767460514	0.05
0	3101	153.840397068306	0.05
0	3103	153.940397068306	0.05
0	3105	154.040397068306	0.05
0	3107	154.140397068306	0.05
0	3108	154.223162869	0.0495
0	3108	154.223162869	0.0495
0	3109	154.240397068306	0.0495
0	3111	154.340397068306	0.0495
0	3113	154.440397068306	0.0495
0	3115	154.540397068306	0.0495
0	3117	154.640397068306	0.0495
0	3119	154.740397068306	0.0495
0	3121	154.840397068306	0.0495
0	3121	154.844250208	0.0495
0	3124	154.940397068306	0.0495
0	3126	155.040397068306	0.0495
0	3128	155.140397068306	0.0495
0	3130	155.240397068306	0.0495
0	3132	155.340397068306	0.0495
0	3132	155.373916129	0.0495
0	3134	155.440397068306	0.0495
0	3136	155.540397068306	0.0495
0	3138	155.640397068306	0.049005
0	3138	155.640397068306	0.049005
0	3140	155.740397068306	0.049005
0	3142	155.840397068306	0.049005
0	3144	155.940397068306	0.049005
0	3144	155.986008607	0.049005
0	3146	156.040397068306	0.049005
0	3148	156.140397068306	0.049005
0	3150	156.240397068306	0.049005
0	3152	156.340397068306	0.049005
0	3154	156.440397068306	0.049005
0	3156	156.540397068306	0.049005
0	3158	156.640397068306	0.049005
0	3160	156.740397068306	0.049005
0	3160	156.749228542	0.049005
0	3162	156.840397068306	0.049005
0	3164	156.940397068306	0.049005
0	3167	157.040397068306	0.049005
0	3169	157.140397068306	0.049005
0	3171	157.240397068306	0.049005
0	3172	157.30495297	0.049005
0	3173	157.340397068306	0.049005
0	3175	157.440397068306	0.049005
0	3177	157.540397068306	0.049005
0	3179	157.640397068306	0.049005
0	3181	157.740397068306	0.049005
0	3183	157.840397068306	0.049005
0	3184	157.912887304	0.049005
0	3185	157.940397068306	0.049005
0	3187	158.040397068306	0.049005
0	3189	158.140397068306	0.049005
0	3191	158.240397068306	0.049005
0	3193	158.340397068306	0.049005
0	3193	158.396095945	0.049005
0	3195	158.440397068306	0.049005
0	3197	158.540397068306	0.049005
0	3199	158.640397068306	0.049005
0	3201	158.740397068306	0.049005
0	3203	158.840397068306	0.049005
0	3203	158.889116857	0.049005
0	3205	158.940397068306	0.049005
0	3207	159.040397068306	0.049005
0	3209	159.140397068306	0.049005
0	3211	159.240397068306	0.049005
0	3213	159.340397068306	0.049005
0	3213	159.38630647	0.049005
0	3215	159.440397068306	0.049005
0	3217	159.540397068306	0.049005
0	3219	159.640397068306	0.049005
0	3221	159.740397068306	0.049005
0	3223	159.840397068306	0.049005
0	3223	159.887894815	0.049005
0	3225	159.940397068306	0.049005
0	3227	160.040397068306	0.049005
0	3229	160.140397068306	0.049005
0	3231	160.240397068306	0.049005
0	3233	160.340397068306	0.049005
0	3234	160.435946524	0.049005
0	3235	160.440397068306	0.049005
0	3237	160.540397068306	0.049005
0	3239	160.640397068306	0.049005
0	3241	160.740397068306	0.049005
0	3243	160.840397068306	0.049005
0	3244	160.907780752	0.049005
0	3245	160.940397068306	0.049005
0	3247	161.040397068306	0.049005
0	3249	161.140397068306	0.049005
0	3251	161.240397068306	0.049005
0	3252	161.334023137	0.04851495
0	3252	161.334023137	0.04851495
0	3253	161.340397068306	0.04851495
0	3255	161.440397068306	0.04851495
0	3257	161.540397068306	0.04851495
0	3259	161.640397068306	0.04851495
0	3261	161.740397068306	0.04851495
0	3262	161.824760485	0.04851495
0	3263	161.840397068306	0.04851495
0	3265	161.940397068306	0.04851495
0	3267	162.040397068306	0.04851495
0	3269	162.140397068306	0.04851495
0	3271	162.240397068306	0.04851495
0	3273	162.340397068306	0.04851495
0	3273	162.34629409	0.04851495
0	3275	162.440397068306	0.04851495
0	3277	162.540397068306	0.04851495
0	3279	162.640397068306	0.04851495
0	3281	162.740397068306	0.04851495
0	3283	162.840397068306	0.04851495
0	3283	162.867856051	0.04851495
0	3285	162.940397068306	0.04851495
0	3287	163.040397068306	0.04851495
0	3289	163.140397068306	0.04851495
0	3291	163.240397068306	0.04851495
0	3293	163.340397068306	0.04851495
0	3294	163.413856165	0.04851495
0	3295	163.440397068306	0.04851495
0	3297	163.540397068306	0.04851495
0	3299	163.640397068306	0.04851495
0	3301	163.740397068306	0.04851495
0	3303	163.840397068306	0.04851495
0	3305	163.940397068306	0.04851495
0	3307	164.040397068306	0.04851495
0	3307	164.050454827	0.04851495
0	3309	164.140397068306	0.04851495
0	3311	164.240397068306	0.04851495
0	3313	164.340397068306	0.04851495
0	3315	164.440397068306	0.04851495
0	3317	164.540397068306	0.04851495
0	3319	164.640397068306	0.04851495
0	3320	164.703479017	0.04851495
0	3321	164.740397068306	0.04851495
0	3323	164.840397068306	0.04851495
0	3325	164.940397068306	0.04851495
0	3327	165.040397068306	0.04851495
0	3329	165.140397068306	0.04851495
0	3329	165.200747041	0.04851495
0	3331	165.240397068306	0.04851495
0	3333	165.340397068306	0.04851495
0	3335	165.440397068306	0.04851495
0	3337	165.540397068306	0.04851495
0	3339	165.640397068306	0.04851495
0	3339	165.686035723	0.04851495
0	3341	165.740397068306	0.04851495
0	3343	165.840397068306	0.04851495
0	3345	165.940397068306	0.04851495
0	3347	166.040397068306	0.04851495
0	3349	166.140397068306	0.04851495
0	3349	166.170765748	0.04851495
0	3351	166.240397068306	0.04851495
0	3353	166.340397068306	0.04851495
0	3355	166.440397068306	0.04851495
0	3357	166.540397068306	0.04851495
0	3358	166.62262033	0.04851495
0	3359	166.640397068306	0.04851495
0	3361	166.740397068306	0.04851495
0	3363	166.840397068306	0.04851495
0	3365	166.940397068306	0.04851495
0	3367	167.040397068306	0.04851495
0	3369	167.102358406586	0.04851495
0	3370	167.140397068306	0.04866710464688
0	3370	167.178792574	0.048820686669656
0	3372	167.223620906586	0.049
0	3373	167.240397068306	0.04906710464688
0	3375	167.340397068306	0.04946710464688
0	3376	167.348620906586	0.0495
0	3378	167.440397068306	0.04986710464688
0	3379	167.473620906586	0.05
0	3381	167.540397068306	0.05
0	3383	167.640397068306	0.05
0	3383	167.669155279	0.05
0	3385	167.740397068306	0.05
0	3387	167.840397068306	0.05
0	3389	167.940397068306	0.05
0	3391	168.040397068306	0.05
0	3393	168.140397068306	0.05
0	3394	168.224857156	0.05
0	3395	168.240397068306	0.05
0	3397	168.340397068306	0.05
0	3399	168.440397068306	0.05
0	3400	168.515403379	0.05
0	3401	168.540397068306	0.05
0	3403	168.640397068306	0.05
0	3405	168.740397068306	0.05
0	3407	168.840397068306	0.05
0	3409	168.940397068306	0.05
0	3411	169.040397068306	0.05
0	3413	169.140397068306	0.05
0	3413	169.156889929	0.05
0	3415	169.240397068306	0.05
0	3417	169.340397068306	0.05
0	3419	169.440397068306	0.05
0	3421	169.540397068306	0.05
0	3423	169.640397068306	0.05
0	3423	169.701329632	0.05
0	3425	169.740397068306	0.05
0	3427	169.840397068306	0.05
0	3429	169.940397068306	0.05
0	3431	170.040397068306	0.05
0	3433	170.140397068306	0.05
0	3435	170.240397068306	0.05
0	3436	170.31433843	0.05
0	3437	170.340397068306	0.05
0	3439	170.440397068306	0.05
0	3441	170.540397068306	0.05
0	3443	170.640397068306	0.05
0	3445	170.740397068306	0.05
0	3447	170.840397068306	0.05
0	3447	170.84855587	0.05
0	3449	170.940397068306	0.05
0	3451	171.040397068306	0.05
0	3453	171.140397068306	0.05
0	3455	171.240397068306	0.05
0	3455	171.288877273	0.05
0	3457	171.340397068306	0.05
0	3459	171.440397068306	0.05
0	3461	171.540397068306	0.05
0	3463	171.640397068306	0.05
0	3465	171.740397068306	0.05
0	3467	171.840397068306	0.05
0	3467	171.85665358	0.05
0	3469	171.940397068306	0.05
0	3471	172.040397068306	0.05
0	3473	172.140397068306	0.05
0	3475	172.240397068306	0.05
0	3477	172.340397068306	0.05
0	3477	172.382240335	0.05
0	3479	172.440397068306	0.05
0	3481	172.540397068306	0.05
0	3483	172.640397068306	0.05
0	3485	172.740397068306	0.05
0	3487	172.840397068306	0.05
0	3487	172.885004926	0.05
0	3489	172.940397068306	0.05
0	3491	173.040397068306	0.05
0	3493	173.140397068306	0.05
0	3495	173.240397068306	0.05
0	3497	173.340397068306	0.05
0	3499	173.440397068306	0.05
0	3501	173.540397068306	0.05
0	3501	173.563755769	0.05
0	3503	173.640397068306	0.05
0	3505	173.740397068306	0.05
0	3507	173.840397068306	0.05
0	3509	173.940397068306	0.05
0	3511	174.040397068306	0.05
0	3512	174.139058557	0.05
0	3513	174.140397068306	0.05
0	3515	174.240397068306	0.05
0	3517	174.340397068306	0.05
0	3519	174.440397068306	0.05
0	3521	174.540397068306	0.05
0	3523	174.640397068306	0.05
0	3523	174.673631071	0.05
0	3525	174.740397068306	0.05
0	3527	174.840397068306	0.05
0	3529	174.940397068306	0.05
0	3531	175.040397068306	0.05
0	3533	175.140397068306	0.05
0	3534	175.235259739	0.05
0	3535	175.240397068306	0.05
0	3537	175.340397068306	0.05
0	3539	175.440397068306	0.05
0	3541	175.540397068306	0.05
0	3543	175.640397068306	0.05
0	3545	175.740397068306	0.05
0	3545	175.793662471	0.05
0	3547	175.840397068306	0.05
0	3549	175.940397068306	0.05
0	3551	176.040397068306	0.05
0	3553	176.140397068306	0.05
0	3555	176.240397068306	0.05
0	3555	176.263594027	0.05
0	3557	176.340397068306	0.05
0	3559	176.440397068306	0.05
0	3561	176.540397068306	0.05
0	3563	176.640397068306	0.05
0	3565	176.740397068306	0.05
0	3565	176.771357095	0.05
0	3567	176.840397068306	0.05
0	3569	176.940397068306	0.05
0	3571	177.040397068306	0.05
0	3573	177.140397068306	0.05
0	3575	177.240397068306	0.05
0	3577	177.340397068306	0.05
0	3577	177.3481267	0.05
0	3579	177.440397068306	0.05
0	3581	177.540397068306	0.05
0	3583	177.640397068306	0.05
0	3585	177.740397068306	0.05
0	3587	177.840397068306	0.05
0	3587	177.865470781	0.05
0	3589	177.940397068306	0.05
0	3591	178.040397068306	0.05
0	3593	178.140397068306	0.05
0	3595	178.240397068306	0.05
0	3597	178.340397068306	0.05
0	3597	178.342133092	0.05
0	3599	178.440397068306	0.05
0	3601	178.540397068306	0.05
0	3604	178.640397068306	0.05
0	3607	178.740397068306	0.05
0	3610	178.840397068306	0.05
0	3612	178.928111218	0.05
0	3613	178.940397068306	0.05
0	3615	179.040397068306	0.05
0	3617	179.140397068306	0.05
0	3619	179.240397068306	0.05
0	3621	179.340397068306	0.05
0	3621	179.362048558	0.05
0	3623	179.440397068306	0.05
0	3625	179.540397068306	0.05
0	3627	179.640397068306	0.05
0	3629	179.740397068306	0.05
0	3631	179.840397068306	0.05
0	3631	179.846389843	0.05
0	3633	179.940397068306	0.05
0	3635	180.040397068306	0.05
0	3637	180.140397068306	0.05
0	3639	180.240397068306	0.05
0	3641	180.340397068306	0.05
0	3641	180.371692942	0.05
0	3643	180.440397068306	0.05
0	3645	180.540397068306	0.05
0	3647	180.640397068306	0.05
0	3649	180.740397068306	0.05
0	3650	180.824139595	0.05
0	3651	180.840397068306	0.05
0	3653	180.940397068306	0.05
0	3655	181.040397068306	0.05
0	3657	181.140397068306	0.05
0	3659	181.240397068306	0.05
0	3661	181.325129829029	0.05
0	3661	181.347189559	0.05
0	3663	181.425129829029	0.05
0	3665	181.525129829029	0.05
0	3667	181.625129829029	0.05
0	3669	181.725129829029	0.05
0	3671	181.825129829029	0.05
0	3671	181.894437655	0.05
0	3673	181.925129829029	0.05
0	3675	182.025129829029	0.05
0	3677	182.125129829029	0.05
0	3679	182.225129829029	0.05
0	3681	182.325129829029	0.05
0	3683	182.425129829029	0.05
0	3683	182.477100106	0.05
0	3685	182.525129829029	0.05
0	3687	182.625129829029	0.05
0	3689	182.725129829029	0.05
0	3691	182.825129829029	0.05
0	3693	182.925129829029	0.05
0	3694	183.011771143	0.05
0	3695	183.025129829029	0.05
0	3697	183.125129829029	0.05
0	3699	183.225129829029	0.05
0	3701	183.325129829029	0.05
0	3703	183.425129829029	0.05
0	3704	183.505930231	0.05
0	3705	183.525129829029	0.05
0	3707	183.625129829029	0.05
0	3709	183.725129829029	0.05
0	3711	183.825129829029	0.05
0	3713	183.925129829029	0.05
0	3715	184.025129829029	0.05
0	3715	184.028575993	0.05
0	3717	184.125129829029	0.05
0	3719	184.225129829029	0.05
0	3721	184.325129829029	0.05
0	3723	184.425129829029	0.05
0	3725	184.525129829029	0.05
0	3727	184.625129829029	0.05
0	3729	184.725129829029	0.05
0	3729	184.750049659	0.05
0	3731	184.825129829029	0.05
0	3733	184.925129829029	0.05
0	3735	185.025129829029	0.05
0	3737	185.125129829029	0.05
0	3739	185.225129829029	0.05
0	3740	185.310444364	0.0495
0	3740	185.310444364	0.0495
0	3741	185.325129829029	0.049558741860116
0	3743	185.425129829029	0.049958741860116
0	3745	185.525129829029	0.05
0	3747	185.625129829029	0.05
0	3749	185.725129829029	0.05
0	3751	185.825129829029	0.05
0	3753	185.925129829029	0.05
0	3753	185.958794392	0.05
0	3755	186.025129829029	0.05
0	3757	186.125129829029	0.05
0	3759	186.225129829029	0.05
0	3761	186.325129829029	0.05
0	3762	186.353004149942	0.05
0	3763	186.424763569	0.05
0	3764	186.425129829029	0.05
0	3766	186.525129829029	0.05
0	3768	186.625129829029	0.05
0	3769	186.723454186	0.05
0	3770	186.725129829029	0.05
0	3772	186.825129829029	0.05
0	3774	186.925129829029	0.05
0	3776	187.025129829029	0.05
0	3778	187.125129829029	0.05
0	3778	187.169157511	0.05
0	3780	187.225129829029	0.05
0	3782	187.325129829029	0.05
0	3784	187.425129829029	0.05
0	3786	187.525129829029	0.05
0	3788	187.625129829029	0.05
0	3788	187.693136344	0.05
0	3790	187.725129829029	0.05
0	3792	187.825129829029	0.05
0	3794	187.925129829029	0.05
0	3796	188.025129829029	0.05
0	3798	188.125129829029	0.0495
0	3798	188.125129829029	0.0495
0	3800	188.225129829029	0.0495
0	3802	188.325129829029	0.0495
0	3804	188.425129829029	0.0495
0	3806	188.525129829029	0.0495
0	3806	188.574535444	0.0495
0	3808	188.625129829029	0.0495
0	3810	188.725129829029	0.0495
0	3812	188.825129829029	0.0495
0	3814	188.925129829029	0.0495
0	3816	189.025129829029	0.0495
0	3818	189.125129829029	0.0495
0	3820	189.225129829029	0.0495
0	3822	189.325129829029	0.0495
0	3824	189.425129829029	0.0495
0	3824	189.452662792	0.0495
0	3826	189.525129829029	0.0495
0	3828	189.625129829029	0.049005
0	3828	189.625129829029	0.049005
0	3830	189.725129829029	0.049005
0	3832	189.825129829029	0.049005
0	3834	189.925129829029	0.049005
0	3836	190.025129829029	0.049005
0	3836	190.087628842	0.049005
0	3838	190.125129829029	0.049005
0	3840	190.225129829029	0.049005
0	3842	190.325129829029	0.049005
0	3844	190.425129829029	0.049005
0	3846	190.525129829029	0.049005
0	3847	190.608241852	0.049005
0	3848	190.625129829029	0.049005
0	3850	190.725129829029	0.049005
0	3852	190.825129829029	0.049005
0	3854	190.925129829029	0.049005
0	3856	191.025129829029	0.049005
0	3856	191.02953724	0.04851495
0	3856	191.02953724	0.04851495
0	3858	191.125129829029	0.04851495
0	3860	191.225129829029	0.04851495
0	3862	191.325129829029	0.04851495
0	3864	191.425129829029	0.04851495
0	3866	191.525129829029	0.04851495
0	3866	191.544101974	0.04851495
0	3868	191.625129829029	0.04851495
0	3870	191.725129829029	0.04851495
0	3872	191.825129829029	0.04851495
0	3874	191.925129829029	0.04851495
0	3876	192.025129829029	0.04851495
0	3876	192.043742386	0.04851495
0	3878	192.125129829029	0.04851495
0	3880	192.225129829029	0.04851495
0	3882	192.325129829029	0.04851495
0	3884	192.425129829029	0.04851495
0	3886	192.525129829029	0.0480298005
0	3886	192.525129829029	0.0480298005
0	3888	192.625129829029	0.0480298005
0	3888	192.636705376	0.0480298005
0	3890	192.725129829029	0.0480298005
0	3892	192.825129829029	0.0480298005
0	3894	192.925129829029	0.0480298005
0	3896	193.025129829029	0.0480298005
0	3898	193.125129829029	0.0480298005
0	3898	193.188588568	0.0480298005
0	3900	193.225129829029	0.0480298005
0	3902	193.325129829029	0.0480298005
0	3904	193.425129829029	0.0480298005
0	3906	193.525129829029	0.0480298005
0	3908	193.625129829029	0.0480298005
0	3910	193.725129829029	0.0480298005
0	3910	193.758711169	0.0480298005
0	3912	193.825129829029	0.0480298005
0	3914	193.925129829029	0.047549502495
0	3914	193.925129829029	0.047549502495
0	3916	194.025129829029	0.047549502495
0	3919	194.125129829029	0.047549502495
0	3922	194.225129829029	0.047549502495
0	3923	194.299964302	0.047549502495
0	3925	194.325129829029	0.047549502495
0	3928	194.425129829029	0.047549502495
0	3930	194.525129829029	0.047549502495
0	3933	194.625129829029	0.047549502495
0	3935	194.687910715753	0.047549502495
0	3937	194.725129829029	0.047698378948104
0	3939	194.800535092003	0.048
0	3941	194.825129829029	0.048098378948104
0	3942	194.908753252	0.048432872639988
0	3944	194.925129829029	0.048013395158623
0	3944	194.925129829029	0.048013395158623
0	3945	194.925535092003	0.0485
0	3947	195.025129829029	0.048898378948104
0	3949	195.050535092003	0.049
0	3951	195.125129829029	0.049298378948104
0	3953	195.175535092003	0.0495
0	3955	195.225129829029	0.049698378948104
0	3957	195.300535092003	0.05
0	3959	195.325129829029	0.05
0	3962	195.425129829029	0.05
0	3963	195.50637778	0.05
0	3964	195.525129829029	0.05
0	3967	195.625129829029	0.05
0	3970	195.725129829029	0.05
0	3973	195.825129829029	0.05
0	3976	195.925129829029	0.0495
0	3976	195.925129829029	0.0495
0	3977	196.005719938	0.049822360435884
0	3978	196.025129829029	0.0499
0	3981	196.125129829029	0.05
0	3983	196.225129829029	0.05
0	3985	196.325129829029	0.05
0	3987	196.425129829029	0.05
0	3989	196.525129829029	0.05
0	3989	196.545050506	0.05
0	3991	196.625129829029	0.05
0	3993	196.725129829029	0.05
0	3995	196.825129829029	0.05
0	3997	196.925129829029	0.05
0	3999	197.025129829029	0.05
0	3999	197.037560608	0.05
0	4001	197.125129829029	0.05
0	4003	197.225129829029	0.05
0	4005	197.325129829029	0.05
0	4007	197.425129829029	0.05
0	4009	197.525129829029	0.05
0	4009	197.580348859	0.05
0	4011	197.625129829029	0.05
0	4013	197.725129829029	0.05
0	4015	197.825129829029	0.05
0	4017	197.925129829029	0.05
0	4019	198.025129829029	0.05
0	4019	198.093477571	0.05
0	4021	198.125129829029	0.05
0	4023	198.225129829029	0.05
0	4025	198.325129829029	0.05
0	4027	198.425129829029	0.05
0	4029	198.525129829029	0.05
0	4031	198.625129829029	0.05
0	4033	198.725129829029	0.05
0	4033	198.766697644	0.05
0	4035	198.825129829029	0.05
0	4037	198.925129829029	0.05
0	4039	199.025129829029	0.05
0	4041	199.125129829029	0.05
0	4043	199.225129829029	0.05
0	4045	199.325129829029	0.05
0	4047	199.425129829029	0.05
0	4047	199.436376226	0.05
0	4049	199.525129829029	0.05
0	4051	199.625129829029	0.05
0	4053	199.725129829029	0.05
0	4055	199.825129829029	0.05
0	4057	199.925129829029	0.05
0	4059	200.025129829029	0.05
0	4059	200.025719923	0.05
0	4061	200.125129829029	0.05
0	4063	200.225129829029	0.05
0	4065	200.325129829029	0.05
0	4067	200.425129829029	0.05
0	4067	200.490516127	0.05
0	4069	200.525129829029	0.05
0	4071	200.625129829029	0.05
0	4073	200.725129829029	0.05
0	4075	200.825129829029	0.05
0	4077	200.925129829029	0.05
0	4079	201.025129829029	0.05
0	4079	201.042516325	0.05
0	4081	201.125129829029	0.05
0	4083	201.225129829029	0.05
0	4084	201.293878313023	0.05
0	4086	201.325129829029	0.05
0	4088	201.425129829029	0.05
0	4090	201.525129829029	0.05
0	4090	201.564070321	0.0495
0	4090	201.564070321	0.0495
0	4092	201.625129829029	0.0495
0	4094	201.725129829029	0.0495
0	4096	201.825129829029	0.0495
0	4098	201.925129829029	0.0495
0	4100	202.025129829029	0.0495
0	4102	202.125129829029	0.0495
0	4102	202.136886847	0.0495
0	4104	202.225129829029	0.0495
0	4106	202.325129829029	0.0495
0	4108	202.425129829029	0.0495
0	4110	202.525129829029	0.0495
0	4112	202.625129829029	0.0495
0	4114	202.725129829029	0.0495
0	4114	202.75784734	0.0495
0	4116	202.825129829029	0.0495
0	4118	202.925129829029	0.0495
0	4120	203.025129829029	0.049005
0	4120	203.025129829029	0.049005
0	4122	203.125129829029	0.049005
0	4124	203.225129829029	0.049005
0	4126	203.325129829029	0.049005
0	4127	203.41959838	0.049005
0	4128	203.425129829029	0.049005
0	4130	203.525129829029	0.049005
0	4132	203.625129829029	0.049005
0	4134	203.725129829029	0.049005
0	4136	203.825129829029	0.049005
0	4138	203.925129829029	0.049005
0	4140	204.025129829029	0.049005
0	4142	204.125129829029	0.049005
0	4142	204.160922971	0.049005
0	4144	204.225129829029	0.049005
0	4146	204.325129829029	0.049005
0	4148	204.425129829029	0.049005
0	4150	204.525129829029	0.04851495
0	4150	204.525129829029	0.04851495
0	4152	204.625129829029	0.04851495
0	4154	204.725129829029	0.04851495
0	4156	204.825129829029	0.04851495
0	4157	204.911878804	0.04851495
0	4158	204.925129829029	0.04851495
0	4160	205.025129829029	0.04851495
0	4162	205.125129829029	0.04851495
0	4164	205.225129829029	0.04851495
0	4166	205.325129829029	0.04851495
0	4166	205.359087127	0.04851495
0	4168	205.425129829029	0.04851495
0	4170	205.525129829029	0.04851495
0	4172	205.625129829029	0.04851495
0	4174	205.725129829029	0.04851495
0	4176	205.825129829029	0.04851495
0	4178	205.925129829029	0.04851495
0	4178	205.965629044	0.0480298005
0	4178	205.965629044	0.0480298005
0	4180	206.025129829029	0.0480298005
0	4182	206.125129829029	0.0480298005
0	4184	206.225129829029	0.0480298005
0	4186	206.325129829029	0.0480298005
0	4188	206.425129829029	0.0480298005
0	4189	206.515867159	0.0480298005
0	4190	206.525129829029	0.0480298005
0	4192	206.625129829029	0.0480298005
0	4194	206.725129829029	0.0480298005
0	4196	206.825129829029	0.0480298005
0	4198	206.925129829029	0.0480298005
0	4200	207.025129829029	0.0480298005
0	4202	207.125129829029	0.0480298005
0	4202	207.136457191	0.0480298005
0	4204	207.225129829029	0.0480298005
0	4206	207.325129829029	0.0480298005
0	4208	207.425129829029	0.047549502495
0	4208	207.425129829029	0.047549502495
0	4210	207.525129829029	0.047549502495
0	4212	207.625129829029	0.047549502495
0	4213	207.709597798	0.047549502495
0	4214	207.725129829029	0.047549502495
0	4216	207.825129829029	0.047549502495
0	4218	207.925129829029	0.047549502495
0	4220	208.025129829029	0.047549502495
0	4222	208.125129829029	0.047549502495
0	4223	208.195145068	0.047549502495
0	4224	208.225129829029	0.047549502495
0	4226	208.325129829029	0.047549502495
0	4228	208.425129829029	0.047549502495
0	4230	208.525129829029	0.047549502495
0	4232	208.625129829029	0.047549502495
0	4234	208.725129829029	0.047549502495
0	4234	208.775097172	0.047549502495
0	4236	208.825129829029	0.04707400747005
0	4236	208.825129829029	0.04707400747005
0	4238	208.925129829029	0.04707400747005
0	4240	209.025129829029	0.04707400747005
0	4242	209.125129829029	0.04707400747005
0	4244	209.225129829029	0.04707400747005
0	4246	209.325129829029	0.04707400747005
0	4246	209.34241387	0.04707400747005
0	4248	209.425129829029	0.04707400747005
0	4250	209.525129829029	0.04707400747005
0	4252	209.625129829029	0.04707400747005
0	4254	209.725129829029	0.04707400747005
0	4256	209.825129829029	0.04707400747005
0	4256	209.874922975	0.04707400747005
0	4258	209.925129829029	0.04707400747005
0	4260	210.025129829029	0.04707400747005
0	4262	210.125129829029	0.04707400747005
0	4264	210.225129829029	0.04707400747005
0	4266	210.325129829029	0.04660326739535
0	4266	210.325129829029	0.04660326739535
0	4267	210.39670048	0.04660326739535
0	4268	210.425129829029	0.04660326739535
0	4270	210.525129829029	0.04660326739535
0	4272	210.625129829029	0.04660326739535
0	4274	210.725129829029	0.04660326739535
0	4276	210.825129829029	0.04660326739535
0	4278	210.925129829029	0.04660326739535
0	4279	211.003165255	0.04660326739535
0	4280	211.025129829029	0.04660326739535
0	4282	211.125129829029	0.04660326739535
0	4284	211.225129829029	0.04660326739535
0	4286	211.325129829029	0.04660326739535
0	4288	211.425129829029	0.04660326739535
0	4288	211.439451895	0.04660326739535
0	4290	211.525129829029	0.04660326739535
0	4292	211.625129829029	0.04660326739535
0	4294	211.725129829029	0.046137234721396
0	4294	211.725129829029	0.046137234721396
0	4296	211.825129829029	0.046137234721396
0	4298	211.925129829029	0.046137234721396
0	4299	211.993374991	0.046137234721396
0	4300	212.025129829029	0.046137234721396
0	4302	212.125129829029	0.046137234721396
0	4304	212.225129829029	0.046137234721396
0	4306	212.325129829029	0.046137234721396
0	4308	212.425129829029	0.046137234721396
0	4309	212.500690879	0.046137234721396
0	4310	212.525129829029	0.046137234721396
0	4312	212.625129829029	0.046137234721396
0	4314	212.725129829029	0.046137234721396
0	4316	212.825129829029	0.046137234721396
0	4318	212.925129829029	0.046137234721396
0	4320	213.025129829029	0.046137234721396
0	4320	213.0652702	0.046137234721396
0	4322	213.125129829029	0.045675862374182
0	4322	213.125129829029	0.045675862374182
0	4324	213.225129829029	0.045675862374182
0	4326	213.325129829029	0.045675862374182
0	4328	213.425129829029	0.045675862374182
0	4330	213.525129829029	0.045675862374182
0	4331	213.595218904	0.045675862374182
0	4332	213.625129829029	0.045675862374182
0	4334	213.725129829029	0.045675862374182
0	4336	213.825129829029	0.045675862374182
0	4338	213.925129829029	0.045675862374182
0	4340	214.025129829029	0.045675862374182
0	4340	214.041438052	0.045675862374182
0	4342	214.125129829029	0.045675862374182
0	4344	214.225129829029	0.045675862374182
0	4346	214.325129829029	0.045675862374182
0	4348	214.425129829029	0.045675862374182
0	4350	214.525129829029	0.045675862374182
0	4351	214.609528711	0.045675862374182
0	4352	214.625129829029	0.045675862374182
0	4354	214.725129829029	0.045675862374182
0	4356	214.825129829029	0.045675862374182
0	4358	214.925129829029	0.045675862374182
0	4360	215.025129829029	0.045675862374182
[...]
2	9814	481.026764414465	0.0495
2	9815	481.095751908992	0.0495
2	9816	481.126764414465	0.0495
2	9818	481.226764414465	0.0495
2	9820	481.326764414465	0.0495
2	9822	481.426764414465	0.0495
2	9824	481.526764414465	0.0495
2	9825	481.590112887992	0.0495
2	9826	481.626764414465	0.0495
2	9828	481.726764414465	0.0495
2	9830	481.826764414465	0.0495
2	9832	481.926764414465	0.0495
2	9834	482.026764414465	0.0495
2	9835	482.119294854992	0.0495
2	9836	482.126764414465	0.0495
2	9838	482.226764414465	0.0495
2	9840	482.326764414465	0.0495
2	9842	482.426764414465	0.0495
2	9844	482.526764414465	0.0495
2	9846	482.626764414465	0.0495
2	9846	482.645424585992	0.0495
2	9848	482.726764414465	0.0495
2	9850	482.826764414465	0.0495
2	9852	482.926764414465	0.0495
2	9854	483.026764414465	0.0495
2	9855	483.097962291992	0.0495
2	9856	483.126764414465	0.0495
2	9858	483.226764414465	0.0495
2	9860	483.326764414465	0.0495
2	9862	483.426764414465	0.0495
2	9864	483.526764414465	0.0495
2	9866	483.626764414465	0.0495
2	9866	483.665049615992	0.0495
2	9868	483.726764414465	0.0495
2	9870	483.826764414465	0.0495
2	9872	483.88262814674	0.0495
2	9874	483.98262814674	0.0495
2	9876	484.08262814674	0.0495
2	9876	484.149123774992	0.0495
2	9878	484.18262814674	0.0495
2	9880	484.28262814674	0.0495
2	9882	484.38262814674	0.0495
2	9884	484.48262814674	0.0495
2	9886	484.58262814674	0.0495
2	9886	484.663443873992	0.0495
2	9888	484.68262814674	0.0495
2	9890	484.78262814674	0.0495
2	9892	484.88262814674	0.0495
2	9894	484.98262814674	0.0495
2	9896	485.08262814674	0.0495
2	9898	485.18262814674	0.0495
2	9898	485.199784770992	0.0495
2	9900	485.28262814674	0.0495
2	9902	485.38262814674	0.0495
2	9904	485.48262814674	0.0495
2	9904	485.485927983992	0.0495
2	9906	485.58262814674	0.0495
2	9908	485.68262814674	0.0495
2	9910	485.78262814674	0.0495
2	9912	485.88262814674	0.0495
2	9914	485.98262814674	0.0495
2	9914	486.056586228992	0.0495
2	9916	486.08262814674	0.0495
2	9918	486.18262814674	0.0495
2	9920	486.28262814674	0.0495
2	9922	486.38262814674	0.0495
2	9924	486.48262814674	0.0495
2	9926	486.58262814674	0.0495
2	9926	486.643169115992	0.0495
2	9928	486.68262814674	0.0495
2	9930	486.78262814674	0.0495
2	9932	486.88262814674	0.0495
2	9934	486.98262814674	0.0495
2	9936	487.08262814674	0.0495
2	9938	487.18262814674	0.0495
2	9938	487.220969799992	0.049005
2	9938	487.220969799992	0.049005
2	9940	487.28262814674	0.049005
2	9942	487.38262814674	0.049005
2	9944	487.48262814674	0.049005
2	9946	487.58262814674	0.049005
2	9948	487.68262814674	0.049005
2	9948	487.712035398992	0.049005
2	9950	487.78262814674	0.049005
2	9952	487.88262814674	0.049005
2	9954	487.98262814674	0.049005
2	9956	488.08262814674	0.049005
2	9958	488.18262814674	0.049005
2	9960	488.28262814674	0.049005
2	9960	488.304924825992	0.049005
2	9962	488.38262814674	0.049005
2	9964	488.48262814674	0.049005
2	9966	488.58262814674	0.049005
2	9968	488.68262814674	0.049005
2	9970	488.78262814674	0.049005
2	9970	488.824540026992	0.049005
2	9972	488.88262814674	0.049005
2	9974	488.98262814674	0.049005
2	9976	489.08262814674	0.049005
2	9978	489.18262814674	0.049005
2	9980	489.28262814674	0.049005
2	9980	489.372508797992	0.049005
2	9982	489.38262814674	0.049005
2	9984	489.48262814674	0.049005
2	9986	489.58262814674	0.049005
2	9988	489.68262814674	0.049005
2	9990	489.78262814674	0.049005
2	9992	489.88262814674	0.049005
2	9992	489.911035530992	0.049005
2	9994	489.98262814674	0.049005
2	9996	490.08262814674	0.049005
2	9998	490.18262814674	0.049005
2	9998	490.190715213992	0.049005
2	10000	490.28262814674	0.049005
2	10002	490.38262814674	0.049005
2	10004	490.48262814674	0.049005
2	10006	490.58262814674	0.049005
2	10008	490.68262814674	0.049005
2	10008	490.721961654992	0.049005
2	10010	490.78262814674	0.049005
2	10012	490.88262814674	0.049005
2	10014	490.98262814674	0.049005
2	10014	490.984742292992	0.049005
2	10016	491.08262814674	0.049005
2	10018	491.18262814674	0.049005
2	10018	491.250485532992	0.049005
2	10020	491.28262814674	0.049005
2	10022	491.38262814674	0.049005
2	10024	491.48262814674	0.049005
2	10026	491.58262814674	0.049005
2	10028	491.68262814674	0.049005
2	10030	491.78262814674	0.049005
2	10030	491.785441023992	0.049005
2	10032	491.88262814674	0.049005
2	10034	491.98262814674	0.049005
2	10036	492.08262814674	0.049005
2	10038	492.18262814674	0.049005
2	10040	492.28262814674	0.049005
2	10042	492.38262814674	0.049005
2	10042	492.409325937992	0.049005
2	10044	492.48262814674	0.049005
2	10046	492.58262814674	0.049005
2	10048	492.68262814674	0.049005
2	10050	492.78262814674	0.049005
2	10052	492.88262814674	0.049005
2	10054	492.98262814674	0.049005
2	10054	493.060230795992	0.049005
2	10056	493.08262814674	0.049005
2	10058	493.18262814674	0.049005
2	10060	493.28262814674	0.049005
2	10062	493.38262814674	0.049005
2	10064	493.48262814674	0.049005
2	10064	493.551913701992	0.049005
2	10066	493.58262814674	0.049005
2	10068	493.68262814674	0.049005
2	10070	493.78262814674	0.049005
2	10072	493.88262814674	0.049005
2	10074	493.98262814674	0.049005
2	10076	494.08262814674	0.049005
2	10076	494.085401733992	0.049005
2	10078	494.18262814674	0.049005
2	10080	494.28262814674	0.049005
2	10082	494.38262814674	0.049005
2	10084	494.48262814674	0.049005
2	10084	494.579043738992	0.049005
2	10086	494.58262814674	0.049005
2	10088	494.68262814674	0.049005
2	10090	494.78262814674	0.049005
2	10092	494.88262814674	0.049005
2	10094	494.98262814674	0.049005
2	10096	495.08262814674	0.049005
2	10096	495.156318756992	0.049005
2	10098	495.18262814674	0.049005
2	10100	495.28262814674	0.049005
2	10102	495.38262814674	0.049005
2	10104	495.48262814674	0.049005
2	10106	495.58262814674	0.049005
2	10106	495.643472388992	0.049005
2	10108	495.68262814674	0.049005
2	10110	495.78262814674	0.049005
2	10112	495.88262814674	0.049005
2	10114	495.98262814674	0.049005
2	10114	496.061569008992	0.049005
2	10116	496.08262814674	0.049005
2	10118	496.18262814674	0.049005
2	10120	496.28262814674	0.049005
2	10122	496.38262814674	0.049005
2	10124	496.48262814674	0.049005
2	10126	496.58262814674	0.049005
2	10126	496.603469484992	0.049005
2	10128	496.68262814674	0.049005
2	10130	496.78262814674	0.049005
2	10132	496.88262814674	0.049005
2	10134	496.98262814674	0.049005
2	10136	497.08262814674	0.049005
2	10136	497.126347887992	0.04851495
2	10136	497.126347887992	0.04851495
2	10138	497.18262814674	0.04851495
2	10140	497.28262814674	0.04851495
2	10142	497.38262814674	0.04851495
2	10144	497.48262814674	0.04851495
2	10146	497.58262814674	0.04851495
2	10148	497.68262814674	0.04851495
2	10148	497.683697235991	0.04851495
2	10150	497.78262814674	0.04851495
2	10152	497.88262814674	0.04851495
2	10154	497.98262814674	0.04851495
2	10156	498.08262814674	0.04851495
2	10157	498.182543130991	0.04851495
2	10158	498.18262814674	0.04851495
2	10160	498.28262814674	0.04851495
2	10162	498.38262814674	0.04851495
2	10164	498.48262814674	0.04851495
2	10166	498.58262814674	0.04851495
2	10168	498.68262814674	0.04851495
2	10170	498.78262814674	0.04851495
2	10170	498.787178208991	0.04851495
2	10172	498.88262814674	0.04851495
2	10174	498.98262814674	0.04851495
2	10176	499.08262814674	0.04851495
2	10178	499.18262814674	0.04851495
2	10180	499.28262814674	0.04851495
2	10182	499.38262814674	0.04851495
2	10184	499.48262814674	0.04851495
2	10184	499.53980560899	0.04851495
2	10186	499.58262814674	0.04851495
2	10188	499.68262814674	0.04851495
2	10190	499.78262814674	0.04851495
2	10190	499.83234012399	0.04851495
2	10192	499.88262814674	0.04851495
2	10194	499.98262814674	0.04851495
2	10196	500.08262814674	0.04851495
2	10198	500.18262814674	0.04851495
2	10200	500.28262814674	0.04851495
2	10202	500.38262814674	0.04851495
2	10202	500.42846151099	0.04851495
2	10204	500.48262814674	0.04851495
2	10206	500.58262814674	0.04851495
2	10208	500.68262814674	0.04851495
2	10210	500.78262814674	0.04851495
2	10212	500.88262814674	0.04851495
2	10212	500.88432105399	0.04851495
2	10214	500.98262814674	0.04851495
2	10216	501.08262814674	0.04851495
2	10216	501.17804632899	0.04851495
2	10218	501.18262814674	0.04851495
2	10220	501.28262814674	0.04851495
2	10222	501.38262814674	0.04851495
2	10224	501.48262814674	0.04851495
2	10226	501.58262814674	0.04851495
2	10228	501.68262814674	0.04851495
2	10228	501.70486244499	0.04851495
2	10230	501.78262814674	0.04851495
2	10232	501.88262814674	0.04851495
2	10234	501.98262814674	0.04851495
2	10236	502.08262814674	0.04851495
2	10238	502.18262814674	0.04851495
2	10238	502.19654662899	0.04851495
2	10240	502.28262814674	0.04851495
2	10242	502.38262814674	0.04851495
2	10242	502.47234887199	0.04851495
2	10244	502.48262814674	0.04851495
2	10246	502.58262814674	0.04851495
2	10248	502.68262814674	0.04851495
2	10250	502.78262814674	0.04851495
2	10252	502.88262814674	0.04851495
2	10252	502.95263928999	0.04851495
2	10254	502.98262814674	0.04851495
2	10256	503.08262814674	0.04851495
2	10258	503.18262814674	0.04851495
2	10260	503.28262814674	0.04851495
2	10262	503.38262814674	0.04851495
2	10262	503.47691910699	0.04851495
2	10264	503.48262814674	0.04851495
2	10266	503.58262814674	0.04851495
2	10268	503.68262814674	0.04851495
2	10270	503.78262814674	0.04851495
2	10272	503.88262814674	0.04851495
2	10274	503.98262814674	0.04851495
2	10274	504.02608322499	0.04851495
2	10276	504.08262814674	0.04851495
2	10278	504.18262814674	0.04851495
2	10280	504.28262814674	0.04851495
2	10282	504.38262814674	0.04851495
2	10284	504.48262814674	0.04851495
2	10284	504.56904734499	0.04851495
2	10286	504.58262814674	0.04851495
2	10288	504.68262814674	0.04851495
2	10290	504.78262814674	0.04851495
2	10292	504.88262814674	0.04851495
2	10294	504.98262814674	0.04851495
2	10296	505.08262814674	0.04851495
2	10296	505.10716919199	0.04851495
2	10298	505.18262814674	0.04851495
2	10300	505.28262814674	0.04851495
2	10302	505.38262814674	0.04851495
2	10304	505.48262814674	0.04851495
2	10306	505.58262814674	0.04851495
2	10306	505.59357169599	0.0480298005
2	10306	505.59357169599	0.0480298005
2	10308	505.68262814674	0.0480298005
2	10310	505.78262814674	0.0480298005
2	10312	505.88262814674	0.0480298005
2	10314	505.98262814674	0.0480298005
2	10314	506.04804411399	0.0480298005
2	10316	506.08262814674	0.0480298005
2	10318	506.18262814674	0.0480298005
2	10320	506.28262814674	0.0480298005
2	10322	506.38262814674	0.0480298005
2	10324	506.48262814674	0.0480298005
2	10326	506.58262814674	0.0480298005
2	10326	506.58864438099	0.0480298005
2	10328	506.68262814674	0.0480298005
2	10330	506.78262814674	0.0480298005
2	10332	506.88262814674	0.0480298005
2	10334	506.98262814674	0.0480298005
2	10336	507.08262814674	0.0480298005
2	10338	507.18262814674	0.0480298005
2	10338	507.21013907499	0.0480298005
2	10340	507.28262814674	0.0480298005
2	10342	507.38262814674	0.0480298005
2	10344	507.48262814674	0.0480298005
2	10346	507.58262814674	0.0480298005
2	10348	507.68262814674	0.0480298005
2	10350	507.78262814674	0.0480298005
2	10352	507.88262814674	0.0480298005
2	10352	507.950900373989	0.0480298005
2	10354	507.98262814674	0.0480298005
2	10356	508.08262814674	0.0480298005
2	10358	508.18262814674	0.0480298005
2	10360	508.28262814674	0.0480298005
2	10362	508.38262814674	0.0480298005
2	10362	508.438445352989	0.0480298005
2	10364	508.48262814674	0.0480298005
2	10366	508.58262814674	0.0480298005
2	10368	508.68262814674	0.0480298005
2	10370	508.78262814674	0.0480298005
2	10372	508.88262814674	0.0480298005
2	10372	508.928545323989	0.0480298005
2	10374	508.98262814674	0.0480298005
2	10376	509.08262814674	0.0480298005
2	10378	509.18262814674	0.0480298005
2	10380	509.28262814674	0.0480298005
2	10382	509.38262814674	0.0480298005
2	10383	509.482624053989	0.0480298005
2	10384	509.48262814674	0.0480298005
2	10386	509.58262814674	0.0480298005
2	10388	509.68262814674	0.0480298005
2	10390	509.78262814674	0.0480298005
2	10392	509.88262814674	0.0480298005
2	10392	509.922240180989	0.047549502495
2	10392	509.922240180989	0.047549502495
2	10394	509.98262814674	0.047549502495
2	10396	510.08262814674	0.047549502495
2	10398	510.18262814674	0.047549502495
2	10400	510.28262814674	0.047549502495
2	10402	510.38262814674	0.047549502495
2	10402	510.411916245989	0.047549502495
2	10404	510.48262814674	0.047549502495
2	10406	510.58262814674	0.047549502495
2	10408	510.68262814674	0.047549502495
2	10410	510.78262814674	0.047549502495
2	10412	510.88262814674	0.047549502495
2	10412	510.917373210989	0.047549502495
2	10414	510.98262814674	0.047549502495
2	10416	511.08262814674	0.047549502495
2	10418	511.18262814674	0.047549502495
2	10420	511.28262814674	0.047549502495
2	10422	511.38262814674	0.047549502495
2	10422	511.405452564989	0.047549502495
2	10424	511.48262814674	0.047549502495
2	10426	511.58262814674	0.047549502495
2	10428	511.68262814674	0.047549502495
2	10430	511.78262814674	0.047549502495
2	10432	511.88262814674	0.047549502495
2	10432	511.911497013989	0.047549502495
2	10434	511.98262814674	0.047549502495
2	10436	512.08262814674	0.047549502495
2	10438	512.18262814674	0.047549502495
2	10440	512.28262814674	0.047549502495
2	10442	512.38262814674	0.047549502495
2	10444	512.48262814674	0.047549502495
2	10444	512.484045150989	0.047549502495
2	10446	512.58262814674	0.047549502495
2	10448	512.68262814674	0.047549502495
2	10450	512.78262814674	0.047549502495
2	10452	512.88262814674	0.047549502495
2	10454	512.98262814674	0.047549502495
2	10454	513.004302504989	0.047549502495
2	10456	513.08262814674	0.047549502495
2	10458	513.18262814674	0.047549502495
2	10460	513.28262814674	0.047549502495
2	10462	513.38262814674	0.047549502495
2	10462	513.464943678989	0.047549502495
2	10464	513.48262814674	0.047549502495
2	10466	513.58262814674	0.047549502495
2	10468	513.68262814674	0.047549502495
2	10470	513.78262814674	0.047549502495
2	10472	513.88262814674	0.047549502495
2	10472	513.932149404989	0.047549502495
2	10474	513.98262814674	0.047549502495
2	10476	514.08262814674	0.047549502495
2	10478	514.18262814674	0.047549502495
2	10478	514.220526120989	0.047549502495
2	10480	514.28262814674	0.047549502495
2	10482	514.38262814674	0.047549502495
2	10484	514.48262814674	0.047549502495
2	10486	514.58262814674	0.047549502495
2	10488	514.68262814674	0.047549502495
2	10488	514.768815807989	0.047549502495
2	10490	514.78262814674	0.047549502495
2	10492	514.88262814674	0.047549502495
2	10494	514.98262814674	0.047549502495
2	10496	515.08262814674	0.047549502495
2	10498	515.18262814674	0.047549502495
2	10498	515.264695050989	0.047549502495
2	10500	515.28262814674	0.047549502495
2	10502	515.38262814674	0.047549502495
2	10504	515.48262814674	0.047549502495
2	10506	515.58262814674	0.047549502495
2	10508	515.68262814674	0.047549502495
2	10510	515.78262814674	0.047549502495
2	10510	515.806825998989	0.047549502495
2	10512	515.88262814674	0.047549502495
2	10514	515.98262814674	0.047549502495
2	10516	516.08262814674	0.047549502495
2	10518	516.18262814674	0.047549502495
2	10520	516.28262814674	0.047549502495
2	10520	516.309786324989	0.047549502495
2	10522	516.38262814674	0.047549502495
2	10524	516.48262814674	0.047549502495
2	10526	516.58262814674	0.047549502495
2	10528	516.68262814674	0.047549502495
2	10530	516.78262814674	0.047549502495
2	10532	516.88262814674	0.047549502495
2	10534	516.98262814674	0.047549502495
2	10536	517.08262814674	0.047549502495
2	10536	517.129756950988	0.047549502495
2	10538	517.18262814674	0.047549502495
2	10540	517.28262814674	0.047549502495
2	10542	517.38262814674	0.047549502495
2	10544	517.48262814674	0.047549502495
2	10546	517.58262814674	0.047549502495
2	10546	517.674736023988	0.047549502495
2	10548	517.68262814674	0.047549502495
2	10550	517.78262814674	0.047549502495
2	10552	517.88262814674	0.047549502495
2	10554	517.98262814674	0.047549502495
2	10556	518.08262814674	0.047549502495
2	10556	518.167522740988	0.047549502495
2	10558	518.18262814674	0.047549502495
2	10560	518.28262814674	0.047549502495
2	10562	518.38262814674	0.047549502495
2	10564	518.48262814674	0.047549502495
2	10566	518.58262814674	0.047549502495
2	10568	518.68262814674	0.047549502495
2	10568	518.693092419987	0.047549502495
2	10570	518.78262814674	0.047549502495
2	10572	518.88262814674	0.047549502495
2	10574	518.98262814674	0.047549502495
2	10576	519.08262814674	0.047549502495
2	10576	519.150334707987	0.047549502495
2	10578	519.18262814674	0.047549502495
2	10580	519.28262814674	0.047549502495
2	10582	519.38262814674	0.047549502495
2	10584	519.48262814674	0.047549502495
2	10586	519.58262814674	0.047549502495
2	10588	519.68262814674	0.047549502495
2	10588	519.684864645987	0.047549502495
2	10590	519.78262814674	0.047549502495
2	10592	519.88262814674	0.047549502495
2	10594	519.98262814674	0.047549502495
2	10596	520.08262814674	0.047549502495
2	10598	520.18262814674	0.047549502495
2	10598	520.216789050987	0.047549502495
2	10600	520.28262814674	0.047549502495
2	10602	520.38262814674	0.047549502495
2	10604	520.48262814674	0.047549502495
2	10606	520.58262814674	0.047549502495
2	10606	520.677900939987	0.047549502495
2	10608	520.68262814674	0.047549502495
2	10610	520.78262814674	0.047549502495
2	10612	520.88262814674	0.047549502495
2	10614	520.98262814674	0.047549502495
2	10616	521.08262814674	0.047549502495
2	10618	521.18262814674	0.047549502495
2	10618	521.252723133987	0.047549502495
2	10620	521.28262814674	0.047549502495
2	10622	521.38262814674	0.047549502495
2	10624	521.48262814674	0.047549502495
2	10626	521.58262814674	0.047549502495
2	10628	521.68262814674	0.047549502495
2	10628	521.722072119987	0.047549502495
2	10630	521.78262814674	0.047549502495
2	10632	521.88262814674	0.047549502495
2	10634	521.98262814674	0.047549502495
2	10636	522.08262814674	0.047549502495
2	10636	522.148597929987	0.047549502495
2	10638	522.18262814674	0.047549502495
2	10640	522.28262814674	0.047549502495
2	10642	522.38262814674	0.047549502495
2	10644	522.48262814674	0.047549502495
2	10646	522.58262814674	0.047549502495
2	10648	522.68262814674	0.047549502495
2	10648	522.711530805987	0.04707400747005
2	10648	522.711530805987	0.04707400747005
2	10650	522.78262814674	0.04707400747005
2	10652	522.88262814674	0.04707400747005
2	10654	522.98262814674	0.04707400747005
2	10656	523.08262814674	0.04707400747005
2	10656	523.150392003987	0.04707400747005
2	10658	523.18262814674	0.04707400747005
2	10660	523.28262814674	0.04707400747005
2	10662	523.38262814674	0.04707400747005
2	10664	523.48262814674	0.04707400747005
2	10666	523.58262814674	0.04707400747005
2	10666	523.661740746987	0.04707400747005
2	10668	523.68262814674	0.04707400747005
2	10670	523.78262814674	0.04707400747005
2	10672	523.88262814674	0.04707400747005
2	10674	523.98262814674	0.04707400747005
2	10676	524.08262814674	0.04707400747005
2	10678	524.18262814674	0.04707400747005
2	10680	524.28262814674	0.04707400747005
2	10680	524.306687013986	0.04707400747005
2	10680	524.380876034695	0.04707400747005
3	0	0	0.004
3	951	46.974101355068	0
3	1057	52.068735910283	0.004
3	3165	156.950451413332	0
3	3602	178.555362820873	0.004
3	3611	178.899100267595	0
3	3917	194.091678717601	0.004
3	4688	230.569244163002	0
3	6810	336.00741506465	0.004
3	7186	352.942687446072	0
3	8200	402.062595573336	0.004
3	9006	441.438493607847	0
3	9486	465.396602864738	0.004
3	9565	468.612483157785	0
4	0	0	0.004
4	461	23.08057828677	0
4	730	36.32961776857	0.004
4	974	48.051571659266	0
4	1008	49.683911550415	0.004
4	2887	143.162623501406	0
4	3369	167.102358406586	0.004
4	3762	186.353004149942	0
4	3935	194.687910715753	0.004
4	4084	201.293878313023	0
4	4632	228.603973971477	0.004
4	4723	232.232800557135	0
4	4973	244.700793272908	0.004
4	5047	248.136120771535	0
4	5095	250.49193287839	0.004
4	5752	283.285363625595	0
4	7346	360.806046923306	0.004
4	7893	387.044483658758	0
4	7974	390.98825035021	0.004
4	9085	445.352459293082	0
5	0	0	0.004
5	951	46.974101355068	0
5	1057	52.068735910283	0.004
5	3165	156.950451413332	0
5	3602	178.555362820873	0.004
5	3611	178.899100267595	0
5	3917	194.091678717601	0.004
5	4688	230.569244163002	0
5	6810	336.00741506465	0.004
5	7186	352.942687446072	0
5	8200	402.062595573336	0.004
5	9006	441.438493607847	0
5	9486	465.396602864738	0.004
5	9565	468.612483157785	0

