version 2
run Mysterio_ex2-0-20210929-15:26:32-4552
attr configname Mysterio_ex2
attr datetime 20210929-15:26:32
attr experiment Mysterio_ex2
attr inifile omnetpp.ini
attr iterationvars ""
attr iterationvarsf ""
attr measurement ""
attr network MysterioCommunication2
attr processid 4552
attr repetition 0
attr replication #0
attr resultdir results
attr runnumber 0
attr seedset 0
param *.host[*].mobility.numeroDrones 10
param *.numHosts 10
param *.host[*].osgModel "\"3d/drone.ive.100.scale.0,0,90.rot\""
param *.basestation.osgModel "\"3d/car.ive.50.scale.0,0,90.rot\""
param *.canvasVisualizer.energyStorageVisualizer.displayEnergyStorages true
param *.host[*].hasStatus true
param *.host[*].energyStorage.typename "\"SimpleEpEnergyStorage\""
param *.host[*].wlan[*].radio.energyConsumer.typename "\"StateBasedEpEnergyConsumer\""
param *.host[*].energyManagement.typename "\"SimpleEpEnergyManagement\""
param *.host[*].energyStorage.nominalCapacity 0.05J
param *.host[*].energyManagement.nodeShutdownCapacity "0.1 * energyStorage.nominalCapacity"
param *.host[*].energyManagement.nodeStartCapacity "0.5 * energyStorage.nominalCapacity"
param *.host[*].energyStorage.initialCapacity 0.05J
param *.host[*].energyGenerator.typename "\"AlternatingEpEnergyGenerator\""
param *.host[*].energyGenerator.powerGeneration 4mW
param *.host[*].energyGenerator.sleepInterval exponential(25s)
param *.host[*].energyGenerator.generationInterval exponential(25s)
param *.host[*].mobility.typename "\"UAVMobility\""
param *.host[*].mobility.changeInterval 1s
param *.host[*].mobility.initialMovementHeading "uniform(0deg, 360deg)"
param *.host[*].mobility.initialMovementElevation "uniform(-90deg, 90deg)"
param *.host[*].mobility.angleDelta uniform(-10deg,10deg)
param *.host[*].mobility.rotationAxisAngle uniform(-10deg,10deg)
param *.host[*].mobility.speed uniform(10mps,20mps)
param *.host[*].mobility.faceForward false
param *.host[*].mobility.initialX 220m
param *.host[*].mobility.initialY 220m
param *.host[*].mobility.initialZ 80m
param *.visualizer.osgVisualizer.typename "\"IntegratedOsgVisualizer\""
param *.visualizer.osgVisualizer.sceneVisualizer.clearColor "\"skyblue\""
param *.visualizer.osgVisualizer.sceneVisualizer.sceneImage "\"showcases/desert\""
param *.visualizer.osgVisualizer.sceneVisualizer.sceneImageSize 5000m
param *.visualizer.osgVisualizer.sceneVisualizer.axisLength 1000m
param *.visualizer.osgVisualizer.sceneVisualizer.sceneMinX -2000m
param *.visualizer.osgVisualizer.sceneVisualizer.sceneMinY -2000m
param *.visualizer.osgVisualizer.sceneVisualizer.sceneMinZ 0m
param *.visualizer.osgVisualizer.sceneVisualizer.sceneMaxX 3000m
param *.visualizer.osgVisualizer.sceneVisualizer.sceneMaxY 3000m
param *.visualizer.osgVisualizer.sceneVisualizer.sceneMaxZ 1000m
param *.visualizer.osgVisualizer.networkNodeVisualizer.displayModuleName false
param *.visualizer.*.mobilityVisualizer.displayMobility true
param *.visualizer.*.mobilityVisualizer.displayPositions true
param *.visualizer.*.mobilityVisualizer.displayOrientations false
param *.visualizer.*.mobilityVisualizer.displayVelocities true
param *.visualizer.*.mobilityVisualizer.displayMovementTrails false
param *.visualizer.*.mobilityVisualizer.animationSpeed 3
param **.constraintAreaMinX 0m
param **.constraintAreaMinY 0m
param **.constraintAreaMinZ 0m
param **.constraintAreaMaxX 1000m
param **.constraintAreaMaxY 1000m
param **.constraintAreaMaxZ 1000m
param **.networkConfiguratorModule "\"\""

vector 0 MysterioCommunication2.host[0].energyStorage residualEnergyCapacity:vector ETV
attr interpolationmode linear
attr source residualEnergyCapacityChanged
attr title "Residual energy capacity, vector"
vector 1 MysterioCommunication2.host[0].energyGenerator powerGeneration:vector ETV
attr interpolationmode sample-hold
attr source powerGenerationChanged
attr title "Power generation, vector"
vector 2 MysterioCommunication2.host[1].energyStorage residualEnergyCapacity:vector ETV
attr interpolationmode linear
attr source residualEnergyCapacityChanged
attr title "Residual energy capacity, vector"
vector 3 MysterioCommunication2.host[1].energyGenerator powerGeneration:vector ETV
attr interpolationmode sample-hold
attr source powerGenerationChanged
attr title "Power generation, vector"
vector 4 MysterioCommunication2.host[2].energyStorage residualEnergyCapacity:vector ETV
attr interpolationmode linear
attr source residualEnergyCapacityChanged
attr title "Residual energy capacity, vector"
vector 5 MysterioCommunication2.host[2].energyGenerator powerGeneration:vector ETV
attr interpolationmode sample-hold
attr source powerGenerationChanged
attr title "Power generation, vector"
vector 6 MysterioCommunication2.host[3].energyStorage residualEnergyCapacity:vector ETV
attr interpolationmode linear
attr source residualEnergyCapacityChanged
attr title "Residual energy capacity, vector"
vector 7 MysterioCommunication2.host[3].energyGenerator powerGeneration:vector ETV
attr interpolationmode sample-hold
attr source powerGenerationChanged
attr title "Power generation, vector"
vector 8 MysterioCommunication2.host[4].energyStorage residualEnergyCapacity:vector ETV
attr interpolationmode linear
attr source residualEnergyCapacityChanged
attr title "Residual energy capacity, vector"
vector 9 MysterioCommunication2.host[4].energyGenerator powerGeneration:vector ETV
attr interpolationmode sample-hold
attr source powerGenerationChanged
attr title "Power generation, vector"
vector 10 MysterioCommunication2.host[5].energyStorage residualEnergyCapacity:vector ETV
attr interpolationmode linear
attr source residualEnergyCapacityChanged
attr title "Residual energy capacity, vector"
vector 11 MysterioCommunication2.host[5].energyGenerator powerGeneration:vector ETV
attr interpolationmode sample-hold
attr source powerGenerationChanged
attr title "Power generation, vector"
vector 12 MysterioCommunication2.host[6].energyStorage residualEnergyCapacity:vector ETV
attr interpolationmode linear
attr source residualEnergyCapacityChanged
attr title "Residual energy capacity, vector"
vector 13 MysterioCommunication2.host[6].energyGenerator powerGeneration:vector ETV
attr interpolationmode sample-hold
attr source powerGenerationChanged
attr title "Power generation, vector"
vector 14 MysterioCommunication2.host[7].energyStorage residualEnergyCapacity:vector ETV
attr interpolationmode linear
attr source residualEnergyCapacityChanged
attr title "Residual energy capacity, vector"
vector 15 MysterioCommunication2.host[7].energyGenerator powerGeneration:vector ETV
attr interpolationmode sample-hold
attr source powerGenerationChanged
attr title "Power generation, vector"
vector 16 MysterioCommunication2.host[8].energyStorage residualEnergyCapacity:vector ETV
attr interpolationmode linear
attr source residualEnergyCapacityChanged
attr title "Residual energy capacity, vector"
vector 17 MysterioCommunication2.host[8].energyGenerator powerGeneration:vector ETV
attr interpolationmode sample-hold
attr source powerGenerationChanged
attr title "Power generation, vector"
vector 18 MysterioCommunication2.host[9].energyStorage residualEnergyCapacity:vector ETV
attr interpolationmode linear
attr source residualEnergyCapacityChanged
attr title "Residual energy capacity, vector"
vector 19 MysterioCommunication2.host[9].energyGenerator powerGeneration:vector ETV
attr interpolationmode sample-hold
attr source powerGenerationChanged
attr title "Power generation, vector"
vector 20 MysterioCommunication2.host[0].energyStorage powerGeneration:vector ETV
attr interpolationmode sample-hold
attr source powerGenerationChanged
attr title "Power generation, vector"
vector 21 MysterioCommunication2.host[1].energyStorage powerGeneration:vector ETV
attr interpolationmode sample-hold
attr source powerGenerationChanged
attr title "Power generation, vector"
vector 22 MysterioCommunication2.host[2].energyStorage powerGeneration:vector ETV
attr interpolationmode sample-hold
attr source powerGenerationChanged
attr title "Power generation, vector"
vector 23 MysterioCommunication2.host[3].energyStorage powerGeneration:vector ETV
attr interpolationmode sample-hold
attr source powerGenerationChanged
attr title "Power generation, vector"
vector 24 MysterioCommunication2.host[4].energyStorage powerGeneration:vector ETV
attr interpolationmode sample-hold
attr source powerGenerationChanged
attr title "Power generation, vector"
vector 25 MysterioCommunication2.host[5].energyStorage powerGeneration:vector ETV
attr interpolationmode sample-hold
attr source powerGenerationChanged
attr title "Power generation, vector"
vector 26 MysterioCommunication2.host[6].energyStorage powerGeneration:vector ETV
attr interpolationmode sample-hold
attr source powerGenerationChanged
attr title "Power generation, vector"
vector 27 MysterioCommunication2.host[7].energyStorage powerGeneration:vector ETV
attr interpolationmode sample-hold
attr source powerGenerationChanged
attr title "Power generation, vector"
vector 28 MysterioCommunication2.host[8].energyStorage powerGeneration:vector ETV
attr interpolationmode sample-hold
attr source powerGenerationChanged
attr title "Power generation, vector"
vector 29 MysterioCommunication2.host[9].energyStorage powerGeneration:vector ETV
attr interpolationmode sample-hold
attr source powerGenerationChanged
attr title "Power generation, vector"
0	0	0	0.05
0	0	0.1	0.05
0	10	0.16163209	0.05
0	11	0.2	0.05
0	21	0.3	0.05
0	31	0.4	0.05
0	41	0.5	0.05
0	52	0.6	0.05
0	62	0.7	0.05
0	72	0.8	0.05
0	82	0.9	0.0495
0	82	0.9	0.0495
0	92	1	0.0499
0	101	1.025604676	0.05
0	102	1.1	0.05
0	112	1.2	0.05
0	122	1.3	0.05
0	132	1.4	0.05
0	142	1.5	0.05
0	152	1.6	0.05
0	161	1.652090017	0.05
0	162	1.7	0.05
0	172	1.8	0.05
0	182	1.9	0.05
0	192	2	0.05
0	202	2.1	0.05
0	212	2.2	0.05
0	222	2.3	0.05
0	231	2.336656504	0.05
0	232	2.4	0.05
0	242	2.5	0.05
0	252	2.6	0.05
0	262	2.7	0.05
0	272	2.8	0.05
0	282	2.9	0.05
0	292	3	0.05
0	301	3.097112506	0.05
0	302	3.1	0.05
0	312	3.2	0.05
0	322	3.3	0.05
0	332	3.4	0.05
0	342	3.5	0.05
0	352	3.6	0.05
0	362	3.7	0.05
0	372	3.8	0.05
0	382	3.9	0.0495
0	382	3.9	0.0495
0	392	4	0.0499
0	401	4.049114158	0.05
0	402	4.1	0.05
0	412	4.2	0.05
0	422	4.3	0.05
0	432	4.4	0.05
0	442	4.5	0.05
0	452	4.6	0.05
0	462	4.7	0.05
0	471	4.723096513	0.05
0	472	4.8	0.05
0	482	4.9	0.05
0	492	5	0.05
0	502	5.1	0.05
0	512	5.2	0.05
0	522	5.3	0.05
0	532	5.4	0.0495
0	532	5.4	0.0495
0	541	5.486432995	0.04984573198
0	542	5.5	0.0499
0	552	5.6	0.05
0	562	5.7	0.05
0	572	5.8	0.05
0	582	5.9	0.05
0	592	6	0.05
0	602	6.1	0.05
0	611	6.164374291	0.05
0	612	6.2	0.05
0	622	6.3	0.05
0	632	6.4	0.05
0	642	6.5	0.05
0	652	6.6	0.05
0	662	6.7	0.05
0	671	6.717028471	0.05
0	672	6.8	0.0495
0	672	6.8	0.0495
0	682	6.9	0.0499
0	692	7	0.05
0	702	7.1	0.05
0	711	7.170532606	0.05
0	712	7.2	0.05
0	722	7.3	0.05
0	732	7.4	0.05
0	742	7.5	0.05
0	752	7.6	0.05
0	761	7.685005525	0.05
0	762	7.7	0.05
0	772	7.8	0.05
0	782	7.9	0.05
0	792	8	0.05
0	802	8.1	0.05
0	812	8.2	0.05
0	821	8.26197256	0.05
0	822	8.3	0.05
0	832	8.4	0.05
0	842	8.5	0.05
0	852	8.6	0.05
0	862	8.7	0.05
0	872	8.8	0.05
0	882	8.9	0.05
0	891	8.996360068	0.05
0	892	9	0.05
0	902	9.1	0.05
0	912	9.2	0.05
0	922	9.3	0.05
0	932	9.4	0.05
0	942	9.5	0.05
0	952	9.6	0.05
0	962	9.7	0.05
0	972	9.8	0.0495
0	972	9.8	0.0495
0	981	9.855350695	0.04972140278
0	982	9.9	0.0499
0	992	10	0.05
0	1002	10.1	0.05
0	1012	10.2	0.05
0	1023	10.3	0.05
0	1033	10.4	0.05
0	1043	10.5	0.05
0	1052	10.599999757	0.05
0	1053	10.6	0.05
0	1063	10.7	0.05
0	1073	10.8	0.05
0	1083	10.9	0.05
0	1093	11	0.05
0	1103	11.1	0.05
0	1112	11.193256087	0.05
0	1113	11.2	0.05
0	1123	11.3	0.05
0	1133	11.4	0.05
0	1143	11.5	0.05
0	1153	11.6	0.05
0	1163	11.7	0.05
0	1173	11.8	0.05
0	1182	11.895568861	0.05
0	1183	11.9	0.05
0	1193	12	0.05
0	1203	12.1	0.05
0	1213	12.2	0.05
0	1223	12.3	0.05
0	1233	12.4	0.05
0	1243	12.5	0.05
0	1253	12.6	0.05
0	1263	12.7	0.05
0	1272	12.752307871	0.05
0	1273	12.8	0.05
0	1283	12.9	0.05
0	1293	13	0.05
0	1303	13.1	0.05
0	1313	13.2	0.05
0	1323	13.3	0.05
0	1333	13.4	0.05
0	1343	13.5	0.05
0	1353	13.6	0.05
0	1363	13.7	0.05
0	1373	13.8	0.05
0	1383	13.9	0.05
0	1392	13.929623788	0.05
0	1393	14	0.05
0	1403	14.1	0.05
0	1413	14.2	0.05
0	1423	14.3	0.05
0	1433	14.4	0.05
0	1443	14.5	0.05
0	1453	14.6	0.05
0	1463	14.7	0.05
0	1473	14.8	0.05
0	1482	14.837976556	0.0495
0	1482	14.837976556	0.0495
0	1483	14.9	0.049748093776
0	1493	15	0.05
0	1503	15.1	0.05
0	1513	15.2	0.05
0	1523	15.3	0.05
0	1533	15.4	0.05
0	1544	15.5	0.05
0	1554	15.6	0.05
0	1564	15.7	0.05
0	1574	15.8	0.05
0	1584	15.9	0.05
0	1593	15.957034624	0.05
0	1594	16	0.05
0	1605	16.1	0.05
0	1615	16.2	0.05
0	1625	16.3	0.05
0	1637	16.4	0.05
0	1648	16.5	0.05
0	1660	16.6	0.05
0	1672	16.7	0.05
0	1681	16.751650606	0.05
0	1683	16.8	0.05
0	1694	16.9	0.05
0	1706	17	0.05
0	1718	17.1	0.05
0	1729	17.2	0.05
0	1739	17.3	0.05
0	1749	17.317151029	0.05
0	1750	17.4	0.05
0	1760	17.5	0.05
0	1770	17.6	0.05
0	1780	17.7	0.05
0	1790	17.8	0.0495
0	1790	17.8	0.0495
0	1800	17.9	0.0499
0	1810	18	0.05
0	1819	18.095203642	0.05
0	1820	18.1	0.05
0	1830	18.2	0.05
0	1840	18.3	0.05
0	1850	18.4	0.05
0	1860	18.495262020266	0.05
0	1871	18.595262020266	0.05
0	1881	18.695262020266	0.05
0	1891	18.795262020266	0.05
0	1901	18.895262020266	0.05
0	1910	18.972161368	0.05
0	1911	18.995262020266	0.05
0	1921	19.095262020266	0.05
0	1931	19.195262020266	0.05
0	1941	19.295262020266	0.0495
0	1941	19.295262020266	0.0495
0	1951	19.395262020266	0.0499
0	1961	19.495262020266	0.05
0	1971	19.595262020266	0.05
0	1981	19.695262020266	0.05
0	1990	19.780051654	0.05
0	1991	19.795262020266	0.05
0	2001	19.895262020266	0.05
0	2011	19.995262020266	0.05
0	2021	20.095262020266	0.05
0	2031	20.195262020266	0.05
0	2041	20.295262020266	0.05
0	2050	20.391315385	0.05
0	2051	20.395262020266	0.05
0	2061	20.495262020266	0.05
0	2071	20.595262020266	0.05
0	2081	20.695262020266	0.05
0	2091	20.795262020266	0.0495
0	2091	20.795262020266	0.0495
0	2101	20.895262020266	0.0499
0	2111	20.995262020266	0.05
0	2121	21.095262020266	0.05
0	2130	21.143113033	0.05
0	2131	21.195262020266	0.05
0	2141	21.295262020266	0.05
0	2151	21.395262020266	0.05
0	2161	21.495262020266	0.05
0	2171	21.595262020266	0.05
0	2181	21.695262020266	0.05
0	2190	21.73719358	0.05
0	2191	21.795262020266	0.05
0	2201	21.895262020266	0.05
0	2212	21.995262020266	0.05
0	2223	22.095262020266	0.05
0	2234	22.195262020266	0.05
0	2245	22.295262020266	0.05
0	2256	22.395262020266	0.05
0	2265	22.468258612	0.05
0	2266	22.495262020266	0.05
0	2277	22.595262020266	0.05
0	2287	22.695262020266	0.05
0	2297	22.795262020266	0.05
0	2307	22.895262020266	0.05
0	2317	22.995262020266	0.05
0	2327	23.095262020266	0.05
0	2337	23.195262020266	0.05
0	2346	23.215856242	0.05
0	2347	23.295262020266	0.05
0	2357	23.395262020266	0.0495
0	2357	23.395262020266	0.0495
0	2367	23.495262020266	0.0499
0	2377	23.595262020266	0.05
0	2387	23.695262020266	0.05
0	2397	23.795262020266	0.05
0	2407	23.895262020266	0.05
0	2416	23.970167395	0.05
0	2417	23.995262020266	0.05
0	2427	24.095262020266	0.05
0	2437	24.195262020266	0.05
0	2447	24.295262020266	0.05
0	2457	24.395262020266	0.05
0	2467	24.495262020266	0.05
0	2477	24.595262020266	0.05
0	2486	24.687367126	0.05
0	2487	24.695262020266	0.05
0	2497	24.795262020266	0.05
0	2507	24.895262020266	0.0495
0	2507	24.895262020266	0.0495
0	2517	24.995262020266	0.0499
0	2527	25.095262020266	0.05
0	2537	25.195262020266	0.05
0	2547	25.295262020266	0.05
0	2556	25.38732904	0.05
0	2557	25.395262020266	0.05
0	2567	25.495262020266	0.05
0	2577	25.595262020266	0.05
0	2587	25.695262020266	0.05
0	2597	25.795262020266	0.05
0	2608	25.895262020266	0.05
0	2618	25.995262020266	0.05
0	2628	26.095262020266	0.05
0	2636	26.158128052	0.05
0	2638	26.195262020266	0.05
0	2648	26.295262020266	0.05
0	2658	26.395262020266	0.05
0	2668	26.495262020266	0.05
0	2678	26.595262020266	0.05
0	2688	26.695262020266	0.05
0	2696	26.731991329	0.05
0	2698	26.795262020266	0.05
0	2708	26.895262020266	0.05
0	2718	26.995262020266	0.05
0	2728	27.095262020266	0.05
0	2738	27.195262020266	0.05
0	2748	27.295262020266	0.05
0	2756	27.322861507	0.05
0	2758	27.395262020266	0.05
0	2768	27.495262020266	0.05
0	2778	27.595262020266	0.05
0	2788	27.695262020266	0.05
0	2798	27.795262020266	0.05
0	2808	27.895262020266	0.05
0	2816	27.926393128	0.05
0	2818	27.995262020266	0.05
0	2828	28.095262020266	0.05
0	2838	28.195262020266	0.05
0	2848	28.295262020266	0.05
0	2858	28.395262020266	0.05
0	2869	28.495262020266	0.05
0	2877	28.519172572	0.05
0	2879	28.595262020266	0.05
0	2889	28.695262020266	0.0495
0	2889	28.695262020266	0.0495
0	2899	28.795262020266	0.0499
0	2909	28.895262020266	0.05
0	2919	28.995262020266	0.05
0	2927	29.043412543	0.05
0	2929	29.095262020266	0.05
0	2939	29.195262020266	0.05
0	2949	29.295262020266	0.05
0	2959	29.395262020266	0.05
0	2970	29.495262020266	0.05
0	2979	29.571596047	0.05
0	2980	29.595262020266	0.05
0	2990	29.695262020266	0.05
0	3000	29.795262020266	0.05
0	3010	29.895262020266	0.05
0	3020	29.995262020266	0.05
0	3030	30.095262020266	0.05
0	3040	30.195262020266	0.05
0	3048	30.240919057	0.05
0	3050	30.295262020266	0.05
0	3060	30.395262020266	0.05
0	3071	30.495262020266	0.05
0	3081	30.595262020266	0.05
0	3092	30.695262020266	0.05
0	3102	30.795262020266	0.05
0	3110	30.844166287	0.05
0	3112	30.895262020266	0.05
0	3122	30.995262020266	0.05
0	3132	31.095262020266	0.05
0	3142	31.195262020266	0.05
0	3152	31.295262020266	0.05
0	3162	31.395262020266	0.05
0	3172	31.495262020266	0.05
0	3181	31.593342103	0.0495
0	3181	31.593342103	0.0495
0	3182	31.595262020266	0.049507679669064
0	3192	31.695262020266	0.049907679669064
0	3202	31.795262020266	0.05
0	3212	31.895262020266	0.05
0	3223	31.995262020266	0.05
0	3232	32.08271131	0.05
0	3233	32.095262020266	0.05
0	3244	32.195262020266	0.05
0	3255	32.295262020266	0.05
0	3266	32.395262020266	0.05
0	3277	32.495262020266	0.05
0	3287	32.595262020266	0.05
0	3295	32.606351191	0.05
0	3298	32.695262020266	0.05
0	3308	32.795262020266	0.05
0	3318	32.895262020266	0.05
0	3328	32.995262020266	0.05
0	3338	33.095262020266	0.05
0	3346	33.141187663	0.05
0	3348	33.195262020266	0.05
0	3358	33.295262020266	0.05
0	3368	33.395262020266	0.05
0	3378	33.495262020266	0.05
0	3388	33.595262020266	0.05
0	3396	33.654148177	0.05
0	3398	33.695262020266	0.05
0	3408	33.795262020266	0.05
0	3418	33.895262020266	0.05
0	3428	33.995262020266	0.05
0	3438	34.095262020266	0.05
0	3448	34.195262020266	0.05
0	3458	34.295262020266	0.05
0	3467	34.373588833	0.05
0	3468	34.395262020266	0.05
0	3478	34.495262020266	0.05
0	3488	34.595262020266	0.05
0	3498	34.695262020266	0.05
0	3508	34.795262020266	0.05
0	3518	34.895262020266	0.05
0	3526	34.933896277	0.05
0	3528	34.995262020266	0.05
0	3538	35.095262020266	0.05
0	3548	35.195262020266	0.05
0	3558	35.295262020266	0.05
0	3568	35.395262020266	0.05
0	3578	35.495262020266	0.05
0	3586	35.513085601	0.05
0	3588	35.595262020266	0.05
0	3598	35.695262020266	0.05
0	3608	35.795262020266	0.05
0	3618	35.895262020266	0.05
0	3628	35.995262020266	0.05
0	3638	36.095262020266	0.05
0	3648	36.195262020266	0.05
0	3657	36.284342749	0.05
0	3658	36.295262020266	0.05
0	3669	36.395262020266	0.05
0	3679	36.495262020266	0.05
0	3689	36.595262020266	0.05
0	3699	36.695262020266	0.05
0	3709	36.795262020266	0.05
0	3719	36.895262020266	0.05
0	3726	36.945994528	0.05
0	3730	36.995262020266	0.05
0	3740	37.095262020266	0.05
0	3750	37.195262020266	0.05
0	3760	37.295262020266	0.05
0	3770	37.395262020266	0.05
0	3780	37.495262020266	0.05
0	3790	37.595262020266	0.05
0	3796	37.626133039	0.05
0	3800	37.695262020266	0.05
0	3810	37.795262020266	0.05
0	3820	37.895262020266	0.05
0	3830	37.995262020266	0.05
0	3840	38.095262020266	0.05
0	3850	38.195262020266	0.05
0	3860	38.295262020266	0.05
0	3870	38.395262020266	0.05
0	3877	38.465921563	0.05
0	3880	38.495262020266	0.05
0	3890	38.595262020266	0.05
0	3900	38.695262020266	0.05
0	3910	38.795262020266	0.05
0	3920	38.895262020266	0.05
0	3930	38.995262020266	0.05
0	3940	39.095262020266	0.05
0	3951	39.195262020266	0.05
0	3957	39.222402940575	0.05
0	3957	39.23256133	0.05
0	3962	39.295262020266	0.05
0	3972	39.395262020266	0.05
0	3982	39.495262020266	0.05
0	3992	39.595262020266	0.05
0	4002	39.695262020266	0.05
0	4012	39.795262020266	0.05
0	4022	39.895262020266	0.05
0	4031	39.982292194	0.05
0	4032	39.995262020266	0.05
0	4042	40.095262020266	0.05
0	4052	40.195262020266	0.05
0	4062	40.295262020266	0.05
0	4072	40.395262020266	0.05
0	4082	40.495262020266	0.05
0	4092	40.595262020266	0.05
0	4092	40.597923904	0.05
0	4102	40.695262020266	0.05
0	4112	40.795262020266	0.05
0	4122	40.895262020266	0.05
0	4132	40.995262020266	0.05
0	4142	41.095262020266	0.05
0	4151	41.177687533	0.05
0	4152	41.195262020266	0.05
0	4162	41.295262020266	0.05
0	4172	41.395262020266	0.05
0	4182	41.495262020266	0.05
0	4192	41.595262020266	0.05
0	4202	41.695262020266	0.05
0	4213	41.795262020266	0.05
0	4223	41.895262020266	0.05
0	4228	41.943739531	0.05
0	4233	41.995262020266	0.05
0	4243	42.095262020266	0.0495
0	4243	42.095262020266	0.0495
0	4253	42.195262020266	0.0495
0	4263	42.295262020266	0.0495
0	4273	42.395262020266	0.0495
0	4283	42.495262020266	0.0495
0	4288	42.508731627511	0.0495
0	4294	42.595262020266	0.04984612157102
0	4300	42.633731627511	0.05
0	4304	42.692347144	0.05
0	4305	42.695262020266	0.05
0	4316	42.795262020266	0.05
0	4326	42.895262020266	0.05
0	4337	42.995262020266	0.05
0	4347	43.095262020266	0.05
0	4357	43.195262020266	0.05
0	4367	43.295262020266	0.05
0	4376	43.383035938	0.05
0	4377	43.395262020266	0.05
0	4387	43.495262020266	0.05
0	4397	43.595262020266	0.05
0	4407	43.695262020266	0.05
0	4417	43.795262020266	0.05
0	4427	43.895262020266	0.0495
0	4427	43.895262020266	0.0495
0	4437	43.995262020266	0.0499
0	4444	44.072107708	0.05
0	4447	44.095262020266	0.05
0	4457	44.195262020266	0.05
0	4467	44.295262020266	0.05
0	4477	44.395262020266	0.05
0	4487	44.495262020266	0.05
0	4497	44.595262020266	0.05
0	4502	44.657668096	0.05
0	4507	44.695262020266	0.05
0	4517	44.795262020266	0.05
0	4527	44.895262020266	0.05
0	4537	44.995262020266	0.05
0	4547	45.095262020266	0.05
0	4557	45.195262020266	0.05
0	4567	45.295262020266	0.05
0	4572	45.318067927	0.05
0	4577	45.395262020266	0.05
0	4587	45.495262020266	0.05
0	4597	45.595262020266	0.05
0	4607	45.695262020266	0.05
0	4617	45.795262020266	0.05
0	4627	45.895262020266	0.05
0	4632	45.924911839	0.05
0	4637	45.995262020266	0.05
0	4647	46.095262020266	0.05
0	4657	46.195262020266	0.05
0	4665	46.271460600806	0.05
0	4668	46.295262020266	0.05
0	4678	46.395262020266	0.05
0	4688	46.495262020266	0.05
0	4698	46.595262020266	0.05
0	4708	46.695262020266	0.05
0	4713	46.716871738	0.05
0	4718	46.795262020266	0.05
0	4728	46.895262020266	0.05
0	4738	46.995262020266	0.05
0	4748	47.095262020266	0.05
0	4758	47.195262020266	0.05
0	4768	47.295262020266	0.05
0	4773	47.350235017	0.05
0	4778	47.395262020266	0.05
0	4788	47.495262020266	0.05
0	4798	47.595262020266	0.05
0	4808	47.695262020266	0.05
0	4818	47.795262020266	0.05
0	4828	47.895262020266	0.05
0	4837	47.983255123	0.05
0	4838	47.995262020266	0.05
0	4848	48.095262020266	0.05
0	4858	48.195262020266	0.05
0	4868	48.295262020266	0.05
0	4878	48.395262020266	0.05
0	4888	48.495262020266	0.05
0	4898	48.595262020266	0.05
0	4903	48.639428083	0.05
0	4908	48.695262020266	0.05
0	4918	48.795262020266	0.05
0	4928	48.895262020266	0.05
0	4938	48.995262020266	0.05
0	4948	49.095262020266	0.05
0	4958	49.195262020266	0.05
0	4967	49.285314469	0.05
0	4968	49.295262020266	0.05
0	4978	49.395262020266	0.05
0	4988	49.495262020266	0.05
0	4998	49.595262020266	0.05
0	5008	49.695262020266	0.05
0	5018	49.795262020266	0.05
0	5028	49.895262020266	0.05
0	5033	49.925288065	0.05
0	5038	49.995262020266	0.05
0	5048	50.095262020266	0.05
0	5058	50.195262020266	0.05
0	5068	50.295262020266	0.05
0	5078	50.395262020266	0.05
0	5088	50.495262020266	0.05
0	5093	50.546414362	0.05
0	5098	50.595262020266	0.05
0	5108	50.695262020266	0.05
0	5118	50.795262020266	0.05
0	5128	50.895262020266	0.05
0	5138	50.995262020266	0.05
0	5149	51.095262020266	0.05
0	5158	51.187620604	0.05
0	5159	51.195262020266	0.05
0	5169	51.295262020266	0.05
0	5179	51.395262020266	0.05
0	5189	51.495262020266	0.05
0	5199	51.595262020266	0.05
0	5209	51.695262020266	0.05
0	5219	51.795262020266	0.05
0	5224	51.853344088	0.05
0	5229	51.895262020266	0.05
0	5234	51.910290893306	0.05
0	5244	52.010290893306	0.05
0	5254	52.110290893306	0.05
0	5264	52.210290893306	0.05
0	5274	52.310290893306	0.05
0	5284	52.410290893306	0.05
0	5294	52.510290893306	0.05
0	5299	52.582813525	0.05
0	5304	52.610290893306	0.05
0	5314	52.710290893306	0.05
0	5324	52.810290893306	0.05
0	5334	52.910290893306	0.05
0	5344	53.010290893306	0.05
0	5354	53.110290893306	0.05
0	5355	53.140734691	0.05
0	5364	53.210290893306	0.05
0	5374	53.310290893306	0.05
0	5384	53.410290893306	0.05
0	5394	53.510290893306	0.05
0	5404	53.610290893306	0.05
0	5409	53.677101814	0.05
0	5414	53.710290893306	0.05
0	5424	53.810290893306	0.05
0	5434	53.910290893306	0.05
0	5444	54.010290893306	0.05
0	5454	54.110290893306	0.05
0	5464	54.210290893306	0.05
0	5474	54.310290893306	0.05
0	5475	54.335016337	0.05
0	5485	54.410290893306	0.05
0	5495	54.510290893306	0.05
0	5505	54.610290893306	0.05
0	5515	54.710290893306	0.0495
0	5515	54.710290893306	0.0495
0	5525	54.810290893306	0.0495
0	5529	54.874357771	0.0495
0	5535	54.910290893306	0.0495
0	5545	55.010290893306	0.0495
0	5555	55.110290893306	0.0495
0	5565	55.210290893306	0.0495
0	5575	55.310290893306	0.0495
0	5585	55.410290893306	0.0495
0	5595	55.510290893306	0.0495
0	5596	55.54260052	0.0495
0	5606	55.610290893306	0.0495
0	5616	55.710290893306	0.0495
0	5627	55.810290893306	0.0495
0	5637	55.910290893306	0.0495
0	5648	56.010290893306	0.0495
0	5659	56.110290893306	0.0495
0	5660	56.124464137	0.0495
0	5669	56.210290893306	0.0495
0	5680	56.310290893306	0.0495
0	5691	56.410290893306	0.0495
0	5701	56.510290893306	0.0495
0	5711	56.610290893306	0.0495
0	5721	56.710290893306	0.0495
0	5722	56.750425357	0.0495
0	5731	56.810290893306	0.0495
0	5741	56.910290893306	0.0495
0	5751	57.010290893306	0.0495
0	5761	57.110290893306	0.0495
0	5771	57.210290893306	0.0495
0	5781	57.310290893306	0.049005
0	5781	57.310290893306	0.049005
0	5784	57.343401643	0.049005
0	5792	57.410290893306	0.049005
0	5802	57.510290893306	0.049005
0	5812	57.610290893306	0.049005
0	5822	57.710290893306	0.049005
0	5832	57.810290893306	0.049005
0	5842	57.910290893306	0.049005
0	5844	57.942513223	0.049005
0	5852	58.010290893306	0.049005
0	5862	58.110290893306	0.049005
0	5872	58.210290893306	0.049005
0	5882	58.310290893306	0.049005
0	5892	58.410290893306	0.049005
0	5902	58.510290893306	0.049005
0	5907	58.593535561	0.049005
0	5912	58.610290893306	0.049005
0	5922	58.710290893306	0.049005
0	5932	58.810290893306	0.049005
0	5942	58.910290893306	0.049005
0	5952	59.010290893306	0.049005
0	5962	59.110290893306	0.049005
0	5972	59.210290893306	0.049005
0	5982	59.310290893306	0.049005
0	5984	59.322686518	0.049005
0	5992	59.410290893306	0.049005
0	6002	59.510290893306	0.049005
0	6012	59.610290893306	0.049005
0	6022	59.710290893306	0.049005
0	6032	59.810290893306	0.049005
0	6042	59.910290893306	0.049005
0	6048	59.987051353	0.049005
0	6052	60.010290893306	0.049005
0	6062	60.110290893306	0.049005
0	6072	60.210290893306	0.049005
0	6077	60.271871757113	0.049005
0	6087	60.371871757113	0.049005
0	6097	60.471871757113	0.049005
0	6107	60.571871757113	0.049005
0	6109	60.595596733	0.049005
0	6117	60.671871757113	0.049005
0	6127	60.771871757113	0.049005
0	6137	60.871871757113	0.049005
0	6147	60.971871757113	0.049005
0	6157	61.071871757113	0.049005
0	6167	61.171871757113	0.049005
0	6172	61.206675481	0.049005
0	6177	61.271871757113	0.049005
0	6188	61.371871757113	0.049005
0	6199	61.471871757113	0.049005
0	6209	61.571871757113	0.049005
0	6219	61.671871757113	0.049005
0	6229	61.771871757113	0.049005
0	6236	61.826370559	0.049005
0	6240	61.871871757113	0.049005
0	6250	61.971871757113	0.049005
0	6260	62.071871757113	0.049005
0	6270	62.171871757113	0.049005
0	6280	62.271871757113	0.049005
0	6289	62.369052949	0.049005
0	6290	62.371871757113	0.049005
0	6300	62.471871757113	0.049005
0	6311	62.571871757113	0.049005
0	6321	62.671871757113	0.049005
0	6331	62.771871757113	0.049005
0	6341	62.871871757113	0.049005
0	6348	62.945639131	0.049005
0	6351	62.971871757113	0.049005
0	6361	63.071871757113	0.04851495
0	6361	63.071871757113	0.04851495
0	6371	63.171871757113	0.04851495
0	6381	63.271871757113	0.04851495
0	6391	63.371871757113	0.04851495
0	6401	63.471871757113	0.04851495
0	6408	63.541568302	0.04851495
0	6411	63.571871757113	0.04851495
0	6421	63.671871757113	0.04851495
0	6431	63.771871757113	0.04851495
0	6441	63.871871757113	0.04851495
0	6451	63.971871757113	0.04851495
0	6462	64.071871757113	0.04851495
0	6463	64.098013348	0.04851495
0	6473	64.171871757113	0.04851495
0	6483	64.271871757113	0.04851495
0	6494	64.371871757113	0.04851495
0	6505	64.471871757113	0.04851495
0	6516	64.571871757113	0.04851495
0	6526	64.671871757113	0.04851495
0	6534	64.753641385	0.04851495
0	6536	64.771871757113	0.04851495
0	6546	64.871871757113	0.04851495
0	6557	64.971871757113	0.04851495
0	6567	65.071871757113	0.04851495
0	6577	65.171871757113	0.04851495
0	6587	65.271871757113	0.04851495
0	6597	65.371871757113	0.04851495
0	6607	65.471871757113	0.04851495
0	6617	65.571871757113	0.04851495
0	6627	65.671871757113	0.04851495
0	6628	65.677615882	0.04851495
0	6637	65.771871757113	0.04851495
0	6647	65.871871757113	0.04851495
0	6657	65.971871757113	0.04851495
0	6667	66.071871757113	0.04851495
0	6677	66.171871757113	0.04851495
0	6688	66.271871757113	0.04851495
0	6698	66.371871757113	0.04851495
0	6698	66.390481462	0.04851495
0	6708	66.471871757113	0.04851495
0	6718	66.571871757113	0.04851495
0	6728	66.671871757113	0.04851495
0	6738	66.771871757113	0.04851495
0	6748	66.871871757113	0.04851495
0	6758	66.971871757113	0.04851495
0	6768	67.071871757113	0.04851495
0	6777	67.168670473	0.04851495
0	6778	67.171871757113	0.04851495
0	6788	67.271871757113	0.04851495
0	6798	67.371871757113	0.04851495
0	6808	67.471871757113	0.04851495
0	6818	67.571871757113	0.04851495
0	6828	67.671871757113	0.04851495
0	6838	67.771871757113	0.04851495
0	6847	67.867684357	0.04851495
0	6848	67.871871757113	0.04851495
0	6858	67.971871757113	0.04851495
0	6868	68.071871757113	0.04851495
0	6878	68.171871757113	0.04851495
0	6885	68.238997428565	0.04851495
0	6895	68.338997428565	0.04851495
0	6905	68.438997428565	0.04851495
0	6915	68.538997428565	0.04851495
0	6925	68.638997428565	0.04851495
0	6934	68.720490916	0.04851495
0	6935	68.738997428565	0.04851495
0	6945	68.838997428565	0.04851495
0	6955	68.938997428565	0.04851495
0	6965	69.038997428565	0.04851495
0	6975	69.138997428565	0.04851495
0	6985	69.238997428565	0.04851495
0	6995	69.338997428565	0.0480298005
0	6995	69.338997428565	0.0480298005
0	7005	69.438997428565	0.0480298005
0	7005	69.449581528	0.0480298005
0	7015	69.538997428565	0.0480298005
0	7025	69.638997428565	0.0480298005
0	7035	69.738997428565	0.0480298005
0	7045	69.838997428565	0.0480298005
0	7055	69.938997428565	0.0480298005
0	7065	70.038997428565	0.0480298005
0	7075	70.138997428565	0.0480298005
0	7083	70.21930084	0.0480298005
1	0	0	0.004
1	3957	39.222402940575	0
1	4288	42.508731627511	0.004
1	4665	46.271460600806	0
2	0	0	0.05
2	0	0.1	0.05
2	10	0.16163209	0.05
2	12	0.2	0.05
2	22	0.3	0.05
2	32	0.4	0.05
2	42	0.5	0.05
2	53	0.6	0.05
2	63	0.7	0.05
2	73	0.8	0.05
2	83	0.9	0.05
2	93	1	0.05
2	101	1.025604676	0.05
2	103	1.1	0.05
2	113	1.2	0.05
2	123	1.3	0.05
2	133	1.4	0.05
2	143	1.5	0.05
2	153	1.6	0.05
2	161	1.652090017	0.05
2	163	1.7	0.05
2	173	1.8	0.05
2	183	1.9	0.05
2	193	2	0.05
2	203	2.1	0.05
2	213	2.2	0.05
2	223	2.3	0.05
2	231	2.336656504	0.05
2	233	2.4	0.05
2	243	2.5	0.05
2	253	2.6	0.05
2	263	2.7	0.05
2	273	2.8	0.05
2	283	2.9	0.05
2	293	3	0.05
2	301	3.097112506	0.05
2	303	3.1	0.05
2	313	3.2	0.05
2	323	3.3	0.05
2	333	3.4	0.05
2	343	3.5	0.05
2	353	3.6	0.05
2	363	3.7	0.05
2	373	3.8	0.05
2	383	3.9	0.05
2	393	4	0.05
2	401	4.049114158	0.05
2	403	4.1	0.05
2	413	4.2	0.05
2	423	4.3	0.05
2	433	4.4	0.05
2	443	4.5	0.05
2	453	4.6	0.05
2	463	4.7	0.05
2	471	4.723096513	0.05
2	473	4.8	0.05
2	483	4.9	0.05
2	493	5	0.05
2	503	5.1	0.05
2	513	5.2	0.05
2	523	5.3	0.05
2	533	5.4	0.05
2	541	5.486432995	0.05
2	543	5.5	0.05
2	553	5.6	0.05
2	563	5.7	0.05
2	573	5.8	0.05
2	583	5.9	0.05
2	593	6	0.05
2	603	6.1	0.05
2	611	6.164374291	0.05
2	613	6.2	0.05
2	623	6.3	0.05
2	633	6.4	0.05
2	643	6.5	0.05
2	653	6.6	0.05
2	663	6.7	0.05
2	671	6.717028471	0.05
2	673	6.8	0.05
2	683	6.9	0.05
2	693	7	0.05
2	703	7.1	0.05
2	711	7.170532606	0.05
2	713	7.2	0.05
2	723	7.3	0.05
2	733	7.4	0.05
2	743	7.5	0.05
2	753	7.6	0.05
2	761	7.685005525	0.05
2	763	7.7	0.05
2	773	7.8	0.05
2	783	7.9	0.05
2	793	8	0.05
2	803	8.1	0.05
2	813	8.2	0.05
2	821	8.26197256	0.05
2	823	8.3	0.05
2	833	8.4	0.05
2	843	8.5	0.05
2	853	8.6	0.05
2	863	8.7	0.05
2	873	8.8	0.05
2	883	8.9	0.05
2	891	8.996360068	0.05
2	893	9	0.05
2	903	9.1	0.05
2	913	9.2	0.05
2	923	9.3	0.05
2	933	9.4	0.05
2	943	9.5	0.05
2	953	9.6	0.05
2	963	9.7	0.05
2	973	9.8	0.05
2	981	9.855350695	0.05
2	983	9.9	0.05
2	993	10	0.05
2	1003	10.1	0.05
2	1013	10.2	0.05
2	1024	10.3	0.05
2	1034	10.4	0.05
2	1044	10.5	0.05
2	1052	10.599999757	0.05
2	1054	10.6	0.0495
2	1054	10.6	0.0495
2	1064	10.7	0.0499
2	1074	10.8	0.05
2	1084	10.9	0.05
2	1094	11	0.05
2	1104	11.1	0.05
2	1112	11.193256087	0.0495
2	1112	11.193256087	0.0495
2	1114	11.2	0.049526975652
2	1124	11.3	0.049926975652
2	1134	11.4	0.05
2	1144	11.5	0.05
2	1154	11.6	0.05
2	1164	11.7	0.05
2	1174	11.8	0.05
2	1182	11.895568861	0.05
2	1184	11.9	0.05
2	1194	12	0.05
2	1204	12.1	0.0495
2	1204	12.1	0.0495
2	1214	12.2	0.0499
2	1224	12.3	0.05
2	1234	12.4	0.05
2	1244	12.5	0.05
2	1254	12.6	0.05
2	1264	12.7	0.05
2	1272	12.752307871	0.05
2	1274	12.8	0.05
2	1284	12.9	0.05
2	1294	13	0.05
2	1304	13.1	0.05
2	1314	13.2	0.05
2	1324	13.3	0.05
2	1334	13.4	0.05
2	1344	13.5	0.05
2	1354	13.6	0.05
2	1364	13.7	0.0495
2	1364	13.7	0.0495
2	1374	13.8	0.0499
2	1384	13.9	0.05
2	1392	13.929623788	0.05
2	1394	14	0.05
2	1404	14.1	0.05
2	1414	14.2	0.05
2	1424	14.3	0.05
2	1434	14.4	0.05
2	1444	14.5	0.05
2	1454	14.6	0.05
2	1464	14.7	0.05
2	1474	14.8	0.05
2	1482	14.837976556	0.05
2	1484	14.9	0.05
2	1494	15	0.05
2	1504	15.1	0.05
2	1514	15.2	0.0495
2	1514	15.2	0.0495
2	1524	15.3	0.0499
2	1534	15.4	0.05
2	1545	15.5	0.05
2	1555	15.6	0.05
2	1565	15.7	0.05
2	1575	15.8	0.05
2	1585	15.9	0.05
2	1593	15.957034624	0.05
2	1595	16	0.05
2	1606	16.1	0.0495
2	1606	16.1	0.0495
2	1616	16.2	0.0499
2	1626	16.3	0.05
2	1635	16.347064180528	0.05
2	1638	16.4	0.05
2	1649	16.5	0.05
2	1661	16.6	0.05
2	1673	16.7	0.05
2	1681	16.751650606	0.05
2	1684	16.8	0.05
2	1695	16.9	0.05
2	1707	17	0.05
2	1719	17.1	0.05
2	1730	17.2	0.05
2	1740	17.3	0.05
2	1749	17.317151029	0.05
2	1751	17.4	0.05
2	1761	17.5	0.05
2	1771	17.6	0.05
2	1781	17.7	0.05
2	1791	17.8	0.05
2	1801	17.9	0.05
2	1811	18	0.05
2	1819	18.095203642	0.05
2	1821	18.1	0.05
2	1831	18.2	0.05
2	1841	18.3	0.05
2	1851	18.4	0.05
2	1862	18.5	0.05
2	1872	18.6	0.05
2	1882	18.7	0.05
2	1892	18.8	0.05
2	1902	18.9	0.05
2	1910	18.972161368	0.05
2	1912	19	0.05
2	1922	19.1	0.05
2	1932	19.2	0.05
2	1942	19.3	0.05
2	1952	19.4	0.05
2	1962	19.5	0.05
2	1972	19.6	0.05
2	1982	19.7	0.05
2	1990	19.780051654	0.05
2	1992	19.8	0.05
2	2002	19.9	0.05
2	2012	20	0.05
2	2022	20.1	0.05
2	2032	20.2	0.05
2	2042	20.3	0.05
2	2050	20.391315385	0.05
2	2052	20.4	0.05
2	2062	20.5	0.05
2	2072	20.6	0.05
2	2082	20.7	0.05
2	2092	20.8	0.05
2	2102	20.9	0.05
2	2112	21	0.05
2	2122	21.1	0.05
2	2130	21.143113033	0.05
2	2132	21.2	0.05
2	2142	21.3	0.05
2	2152	21.4	0.05
2	2162	21.5	0.05
2	2172	21.6	0.05
2	2182	21.7	0.05
2	2190	21.73719358	0.05
2	2192	21.8	0.05
2	2202	21.9	0.05
2	2211	21.910955105011	0.05
2	2213	22	0.05
2	2224	22.1	0.05
2	2235	22.2	0.05
2	2246	22.3	0.05
2	2257	22.4	0.05
2	2265	22.468258612	0.0495
2	2265	22.468258612	0.0495
2	2267	22.5	0.049626965552
2	2278	22.6	0.05
2	2288	22.7	0.05
2	2298	22.8	0.05
2	2308	22.9	0.05
2	2318	23	0.05
2	2328	23.1	0.05
2	2338	23.2	0.05
2	2346	23.215856242	0.05
2	2348	23.3	0.05
2	2358	23.4	0.05
2	2368	23.5	0.05
2	2378	23.6	0.05
2	2388	23.7	0.05
2	2398	23.8	0.05
2	2408	23.9	0.05
2	2416	23.970167395	0.05
2	2418	24	0.05
2	2428	24.1	0.05
2	2438	24.2	0.05
2	2448	24.3	0.05
2	2458	24.4	0.05
2	2468	24.5	0.05
2	2478	24.6	0.05
2	2486	24.687367126	0.05
2	2488	24.7	0.05
2	2498	24.8	0.05
2	2508	24.9	0.05
2	2518	25	0.05
2	2528	25.1	0.05
2	2538	25.2	0.05
2	2548	25.3	0.05
2	2556	25.38732904	0.05
2	2558	25.4	0.05
2	2568	25.5	0.05
2	2578	25.6	0.05
2	2588	25.7	0.05
2	2598	25.8	0.05
2	2607	25.861365971599	0.05
2	2617	25.961365971599	0.05
2	2627	26.061365971599	0.05
2	2636	26.158128052	0.05
2	2637	26.161365971599	0.05
2	2647	26.261365971599	0.05
2	2657	26.361365971599	0.0495
2	2657	26.361365971599	0.0495
2	2667	26.461365971599	0.0499
2	2677	26.561365971599	0.05
2	2687	26.661365971599	0.05
2	2696	26.731991329	0.05
2	2697	26.761365971599	0.05
2	2707	26.861365971599	0.05
2	2717	26.961365971599	0.05
2	2727	27.061365971599	0.05
2	2737	27.161365971599	0.05
2	2747	27.261365971599	0.05
2	2756	27.322861507	0.05
2	2757	27.361365971599	0.05
2	2767	27.461365971599	0.05
2	2777	27.561365971599	0.05
2	2787	27.661365971599	0.05
2	2797	27.761365971599	0.05
2	2807	27.861365971599	0.0495
2	2807	27.861365971599	0.0495
2	2816	27.926393128	0.049760108625604
2	2817	27.961365971599	0.0499
2	2827	28.061365971599	0.05
2	2837	28.161365971599	0.05
2	2847	28.261365971599	0.05
2	2857	28.361365971599	0.05
2	2868	28.461365971599	0.05
2	2877	28.519172572	0.05
2	2878	28.561365971599	0.05
2	2888	28.661365971599	0.05
2	2898	28.761365971599	0.05
2	2908	28.861365971599	0.05
2	2918	28.961365971599	0.05
2	2927	29.043412543	0.05
2	2928	29.061365971599	0.05
2	2938	29.161365971599	0.05
2	2948	29.261365971599	0.05
2	2958	29.361365971599	0.05
2	2969	29.461365971599	0.05
2	2979	29.561365971599	0.05
2	2979	29.571596047	0.05
2	2989	29.661365971599	0.05
2	2999	29.761365971599	0.05
2	3009	29.861365971599	0.05
2	3019	29.961365971599	0.05
2	3029	30.061365971599	0.05
2	3039	30.161365971599	0.0495
2	3039	30.161365971599	0.0495
2	3048	30.240919057	0.049818212341604
2	3049	30.261365971599	0.0499
2	3059	30.361365971599	0.05
2	3069	30.461365971599	0.05
2	3080	30.561365971599	0.05
2	3091	30.661365971599	0.05
2	3101	30.761365971599	0.05
2	3110	30.844166287	0.05
2	3111	30.861365971599	0.05
2	3121	30.961365971599	0.0495
2	3121	30.961365971599	0.0495
2	3131	31.061365971599	0.0499
2	3141	31.161365971599	0.05
2	3151	31.261365971599	0.05
2	3161	31.361365971599	0.05
2	3171	31.461365971599	0.05
2	3181	31.561365971599	0.05
2	3181	31.593342103	0.05
2	3191	31.661365971599	0.05
2	3201	31.761365971599	0.05
2	3211	31.861365971599	0.05
2	3221	31.961365971599	0.05
2	3232	32.061365971599	0.05
2	3232	32.08271131	0.05
2	3243	32.161365971599	0.05
2	3254	32.261365971599	0.05
2	3265	32.361365971599	0.05
2	3275	32.461365971599	0.05
2	3286	32.561365971599	0.05
2	3295	32.606351191	0.0495
2	3295	32.606351191	0.0495
2	3297	32.661365971599	0.049720059122396
2	3307	32.761365971599	0.05
2	3317	32.861365971599	0.05
2	3327	32.961365971599	0.05
2	3337	33.061365971599	0.05
2	3346	33.141187663	0.05
2	3347	33.161365971599	0.05
2	3357	33.261365971599	0.05
2	3367	33.361365971599	0.05
2	3377	33.461365971599	0.05
2	3387	33.561365971599	0.0495
2	3387	33.561365971599	0.0495
2	3396	33.654148177	0.049871128821604
2	3397	33.661365971599	0.0499
2	3407	33.761365971599	0.05
2	3417	33.861365971599	0.05
2	3427	33.961365971599	0.05
2	3437	34.061365971599	0.05
2	3447	34.161365971599	0.05
2	3457	34.261365971599	0.05
2	3467	34.361365971599	0.05
2	3467	34.373588833	0.05
2	3477	34.461365971599	0.05
2	3487	34.561365971599	0.05
2	3497	34.661365971599	0.05
2	3507	34.761365971599	0.05
2	3517	34.861365971599	0.05
2	3526	34.933896277	0.05
2	3527	34.961365971599	0.0495
2	3527	34.961365971599	0.0495
2	3537	35.061365971599	0.0499
2	3547	35.161365971599	0.05
2	3557	35.261365971599	0.05
2	3567	35.361365971599	0.05
2	3577	35.461365971599	0.05
2	3586	35.513085601	0.05
2	3587	35.561365971599	0.05
2	3597	35.661365971599	0.05
2	3607	35.761365971599	0.05
2	3617	35.861365971599	0.05
2	3627	35.961365971599	0.05
2	3637	36.061365971599	0.05
2	3647	36.161365971599	0.05
2	3657	36.261365971599	0.05
2	3657	36.284342749	0.05
2	3667	36.361365971599	0.05
2	3677	36.461365971599	0.0495
2	3677	36.461365971599	0.0495
2	3687	36.561365971599	0.0499
2	3697	36.661365971599	0.05
2	3707	36.761365971599	0.05
2	3717	36.861365971599	0.05
2	3726	36.945994528	0.05
2	3727	36.961365971599	0.05
2	3737	37.061365971599	0.05
2	3747	37.161365971599	0.05
2	3757	37.261365971599	0.05
2	3767	37.361365971599	0.05
2	3777	37.461365971599	0.05
2	3787	37.561365971599	0.05
2	3796	37.626133039	0.05
2	3797	37.661365971599	0.05
2	3807	37.761365971599	0.05
2	3817	37.861365971599	0.05
2	3827	37.961365971599	0.0495
2	3827	37.961365971599	0.0495
2	3837	38.061365971599	0.0499
2	3847	38.161365971599	0.05
2	3857	38.261365971599	0.05
2	3867	38.361365971599	0.05
2	3877	38.461365971599	0.05
2	3877	38.465921563	0.05
2	3887	38.561365971599	0.05
2	3897	38.661365971599	0.05
2	3907	38.761365971599	0.05
2	3917	38.861365971599	0.05
2	3927	38.961365971599	0.05
2	3937	39.061365971599	0.05
2	3947	39.161365971599	0.05
2	3957	39.23256133	0.05
2	3958	39.261365971599	0.05
2	3968	39.361365971599	0.05
2	3978	39.461365971599	0.05
2	3988	39.561365971599	0.05
2	3998	39.661365971599	0.05
2	4008	39.761365971599	0.05
2	4018	39.861365971599	0.05
2	4028	39.961365971599	0.05
2	4031	39.982292194	0.05
2	4038	40.061365971599	0.05
2	4048	40.161365971599	0.05
2	4058	40.261365971599	0.05
2	4068	40.361365971599	0.05
2	4078	40.461365971599	0.05
2	4088	40.561365971599	0.05
2	4092	40.597923904	0.05
2	4098	40.661365971599	0.05
2	4108	40.761365971599	0.05
2	4118	40.861365971599	0.05
2	4128	40.961365971599	0.05
2	4138	41.061365971599	0.05
2	4148	41.161365971599	0.05
2	4151	41.177687533	0.0495
2	4151	41.177687533	0.0495
2	4158	41.261365971599	0.049834713754396
2	4168	41.361365971599	0.05
2	4178	41.461365971599	0.05
2	4188	41.561365971599	0.05
2	4198	41.661365971599	0.05
2	4209	41.761365971599	0.05
2	4219	41.861365971599	0.0495
2	4219	41.861365971599	0.0495
2	4228	41.943739531	0.049829494237604
2	4229	41.961365971599	0.0499
2	4239	42.061365971599	0.05
2	4249	42.161365971599	0.05
2	4259	42.261365971599	0.05
2	4269	42.361365971599	0.05
2	4279	42.461365971599	0.05
2	4290	42.561365971599	0.05
2	4301	42.661365971599	0.05
2	4304	42.692347144	0.05
2	4312	42.761365971599	0.05
2	4322	42.861365971599	0.05
2	4332	42.961365971599	0.05
2	4336	42.993122123816	0.05
2	4343	43.061365971599	0.05
2	4353	43.161365971599	0.05
2	4363	43.261365971599	0.05
2	4373	43.361365971599	0.05
2	4376	43.383035938	0.05
2	4383	43.461365971599	0.05
2	4393	43.561365971599	0.0495
2	4393	43.561365971599	0.0495
2	4403	43.661365971599	0.0495
2	4413	43.761365971599	0.0495
2	4423	43.861365971599	0.0495
2	4433	43.961365971599	0.0495
2	4443	44.061365971599	0.0495
2	4444	44.072107708	0.0495
2	4453	44.161365971599	0.0495
2	4463	44.261365971599	0.0495
2	4473	44.361365971599	0.0495
2	4483	44.461365971599	0.0495
2	4493	44.561365971599	0.0495
2	4502	44.657668096	0.0495
2	4503	44.661365971599	0.0495
2	4513	44.761365971599	0.0495
2	4523	44.861365971599	0.0495
2	4533	44.961365971599	0.0495
2	4543	45.061365971599	0.049005
2	4543	45.061365971599	0.049005
2	4553	45.161365971599	0.049005
2	4563	45.261365971599	0.049005
2	4572	45.318067927	0.049005
2	4573	45.361365971599	0.049005
2	4583	45.461365971599	0.049005
2	4593	45.561365971599	0.049005
2	4603	45.661365971599	0.049005
2	4613	45.761365971599	0.049005
2	4623	45.861365971599	0.049005
2	4632	45.924911839	0.049005
2	4633	45.961365971599	0.049005
2	4643	46.061365971599	0.049005
2	4653	46.161365971599	0.049005
2	4663	46.261365971599	0.049005
2	4674	46.361365971599	0.049005
2	4684	46.461365971599	0.049005
2	4694	46.561365971599	0.049005
2	4704	46.661365971599	0.049005
2	4713	46.716871738	0.049005
2	4714	46.761365971599	0.049005
2	4724	46.861365971599	0.049005
2	4734	46.961365971599	0.049005
2	4744	47.061365971599	0.049005
2	4754	47.161365971599	0.049005
2	4764	47.261365971599	0.049005
2	4773	47.350235017	0.049005
2	4774	47.361365971599	0.049005
2	4784	47.461365971599	0.049005
2	4794	47.561365971599	0.049005
2	4804	47.661365971599	0.049005
2	4814	47.761365971599	0.049005
2	4824	47.861365971599	0.049005
2	4834	47.961365971599	0.049005
2	4837	47.983255123	0.049005
2	4844	48.061365971599	0.049005
2	4854	48.161365971599	0.049005
2	4864	48.261365971599	0.049005
2	4874	48.361365971599	0.049005
2	4884	48.461365971599	0.049005
2	4894	48.561365971599	0.049005
2	4903	48.639428083	0.049005
2	4904	48.661365971599	0.049005
2	4914	48.761365971599	0.049005
2	4924	48.861365971599	0.049005
2	4934	48.961365971599	0.049005
2	4944	49.061365971599	0.049005
2	4954	49.161365971599	0.049005
2	4964	49.261365971599	0.049005
2	4967	49.285314469	0.049005
2	4974	49.361365971599	0.049005
2	4984	49.461365971599	0.049005
2	4994	49.561365971599	0.049005
2	5004	49.661365971599	0.049005
2	5014	49.761365971599	0.049005
2	5024	49.861365971599	0.049005
2	5033	49.925288065	0.049005
2	5034	49.961365971599	0.049005
2	5044	50.061365971599	0.049005
2	5054	50.161365971599	0.049005
2	5064	50.261365971599	0.049005
2	5074	50.361365971599	0.049005
2	5084	50.461365971599	0.049005
2	5093	50.546414362	0.049005
2	5094	50.561365971599	0.049005
2	5104	50.661365971599	0.049005
2	5114	50.761365971599	0.049005
2	5124	50.861365971599	0.049005
2	5134	50.961365971599	0.049005
2	5145	51.061365971599	0.049005
2	5155	51.161365971599	0.049005
2	5158	51.187620604	0.049005
2	5165	51.261365971599	0.049005
2	5175	51.361365971599	0.049005
2	5185	51.461365971599	0.049005
2	5195	51.561365971599	0.049005
2	5205	51.661365971599	0.049005
2	5215	51.761365971599	0.049005
2	5224	51.853344088	0.049005
2	5225	51.861365971599	0.049005
2	5236	51.961365971599	0.049005
2	5246	52.061365971599	0.049005
2	5256	52.161365971599	0.049005
2	5266	52.261365971599	0.049005
2	5276	52.361365971599	0.049005
2	5286	52.461365971599	0.049005
2	5296	52.561365971599	0.049005
2	5299	52.582813525	0.049005
2	5306	52.661365971599	0.049005
2	5316	52.761365971599	0.049005
2	5326	52.861365971599	0.049005
2	5336	52.961365971599	0.049005
2	5346	53.061365971599	0.049005
2	5355	53.140734691	0.049005
2	5356	53.161365971599	0.049005
2	5366	53.261365971599	0.049005
2	5376	53.361365971599	0.049005
2	5386	53.461365971599	0.049005
2	5396	53.561365971599	0.049005
2	5406	53.661365971599	0.049005
2	5409	53.677101814	0.049005
2	5416	53.761365971599	0.049005
2	5426	53.861365971599	0.049005
2	5436	53.961365971599	0.049005
2	5446	54.061365971599	0.049005
2	5456	54.161365971599	0.049005
2	5466	54.261365971599	0.049005
2	5475	54.335016337	0.049005
2	5476	54.361365971599	0.049005
2	5487	54.461365971599	0.049005
2	5497	54.561365971599	0.049005
2	5507	54.652303740329	0.049005
2	5517	54.752303740329	0.049005
2	5527	54.852303740329	0.049005
2	5529	54.874357771	0.049005
2	5537	54.952303740329	0.049005
2	5547	55.052303740329	0.049005
2	5557	55.152303740329	0.049005
2	5567	55.252303740329	0.049005
2	5577	55.352303740329	0.049005
2	5587	55.452303740329	0.049005
2	5596	55.54260052	0.049005
2	5597	55.552303740329	0.04851495
2	5597	55.552303740329	0.04851495
2	5608	55.652303740329	0.04851495
2	5619	55.752303740329	0.04851495
2	5629	55.852303740329	0.04851495
2	5639	55.952303740329	0.04851495
2	5650	56.052303740329	0.04851495
2	5660	56.124464137	0.04851495
2	5661	56.152303740329	0.04851495
2	5672	56.252303740329	0.04851495
2	5683	56.352303740329	0.04851495
2	5693	56.452303740329	0.04851495
2	5703	56.552303740329	0.04851495
2	5713	56.652303740329	0.04851495
2	5722	56.750425357	0.04851495
2	5723	56.752303740329	0.04851495
2	5733	56.852303740329	0.04851495
2	5744	56.952303740329	0.04851495
2	5754	57.052303740329	0.04851495
2	5764	57.152303740329	0.04851495
2	5774	57.252303740329	0.04851495
2	5784	57.343401643	0.04851495
2	5785	57.352303740329	0.04851495
2	5795	57.452303740329	0.04851495
2	5805	57.552303740329	0.0480298005
2	5805	57.552303740329	0.0480298005
2	5815	57.652303740329	0.0480298005
2	5825	57.752303740329	0.0480298005
2	5835	57.852303740329	0.0480298005
2	5844	57.942513223	0.0480298005
2	5845	57.952303740329	0.0480298005
2	5855	58.052303740329	0.0480298005
2	5865	58.152303740329	0.0480298005
2	5875	58.252303740329	0.0480298005
2	5885	58.352303740329	0.0480298005
2	5895	58.452303740329	0.0480298005
2	5905	58.552303740329	0.0480298005
2	5907	58.593535561	0.0480298005
2	5915	58.652303740329	0.0480298005
2	5925	58.752303740329	0.0480298005
2	5935	58.852303740329	0.0480298005
2	5945	58.952303740329	0.0480298005
2	5955	59.052303740329	0.047549502495
2	5955	59.052303740329	0.047549502495
2	5965	59.152303740329	0.047549502495
2	5975	59.252303740329	0.047549502495
2	5984	59.322686518	0.047549502495
2	5985	59.352303740329	0.047549502495
2	5995	59.452303740329	0.047549502495
2	6005	59.552303740329	0.047549502495
2	6015	59.652303740329	0.047549502495
2	6025	59.752303740329	0.047549502495
2	6035	59.852303740329	0.047549502495
2	6045	59.952303740329	0.047549502495
2	6048	59.987051353	0.047549502495
2	6055	60.052303740329	0.047549502495
2	6065	60.152303740329	0.047549502495
2	6075	60.252303740329	0.047549502495
2	6085	60.352303740329	0.047549502495
2	6095	60.452303740329	0.047549502495
2	6105	60.552303740329	0.04707400747005
2	6105	60.552303740329	0.04707400747005
2	6109	60.595596733	0.04707400747005
2	6115	60.652303740329	0.04707400747005
2	6125	60.752303740329	0.04707400747005
2	6135	60.852303740329	0.04707400747005
2	6145	60.952303740329	0.04707400747005
2	6155	61.052303740329	0.04707400747005
2	6165	61.152303740329	0.04707400747005
2	6172	61.206675481	0.04707400747005
2	6175	61.252303740329	0.04707400747005
2	6186	61.352303740329	0.04707400747005
2	6197	61.452303740329	0.04707400747005
2	6207	61.552303740329	0.04707400747005
2	6217	61.652303740329	0.04707400747005
2	6227	61.752303740329	0.04707400747005
2	6236	61.826370559	0.04707400747005
2	6238	61.852303740329	0.04707400747005
2	6248	61.952303740329	0.04707400747005
2	6258	62.052303740329	0.04707400747005
2	6268	62.152303740329	0.04707400747005
2	6278	62.252303740329	0.04707400747005
2	6288	62.352303740329	0.04707400747005
2	6289	62.369052949	0.04707400747005
2	6298	62.452303740329	0.04707400747005
2	6309	62.552303740329	0.04707400747005
2	6319	62.652303740329	0.04707400747005
2	6329	62.752303740329	0.04707400747005
2	6339	62.852303740329	0.04707400747005
2	6348	62.945639131	0.04707400747005
2	6349	62.952303740329	0.04707400747005
2	6359	63.052303740329	0.04707400747005
2	6369	63.152303740329	0.04707400747005
2	6379	63.252303740329	0.04707400747005
2	6389	63.352303740329	0.04707400747005
2	6399	63.452303740329	0.04707400747005
2	6408	63.541568302	0.04707400747005
2	6409	63.552303740329	0.04707400747005
2	6419	63.652303740329	0.04660326739535
2	6419	63.652303740329	0.04660326739535
2	6429	63.752303740329	0.04660326739535
2	6439	63.852303740329	0.04660326739535
2	6449	63.952303740329	0.04660326739535
2	6460	64.052303740329	0.04660326739535
2	6463	64.098013348	0.04660326739535
2	6471	64.152303740329	0.04660326739535
2	6481	64.252303740329	0.04660326739535
2	6492	64.352303740329	0.04660326739535
2	6503	64.452303740329	0.04660326739535
2	6514	64.552303740329	0.04660326739535
2	6524	64.652303740329	0.04660326739535
2	6534	64.752303740329	0.04660326739535
2	6534	64.753641385	0.04660326739535
2	6544	64.852303740329	0.04660326739535
2	6554	64.952303740329	0.04660326739535
2	6565	65.052303740329	0.04660326739535
2	6575	65.152303740329	0.04660326739535
2	6585	65.252303740329	0.04660326739535
2	6595	65.352303740329	0.04660326739535
2	6605	65.452303740329	0.04660326739535
2	6615	65.552303740329	0.04660326739535
2	6625	65.652303740329	0.04660326739535
2	6628	65.677615882	0.04660326739535
2	6635	65.752303740329	0.04660326739535
2	6645	65.852303740329	0.04660326739535
2	6655	65.952303740329	0.04660326739535
2	6665	66.052303740329	0.04660326739535
2	6675	66.152303740329	0.04660326739535
2	6685	66.252303740329	0.04660326739535
2	6695	66.352303740329	0.046137234721396
2	6695	66.352303740329	0.046137234721396
2	6698	66.390481462	0.046137234721396
2	6705	66.452303740329	0.046137234721396
2	6715	66.552303740329	0.046137234721396
2	6725	66.652303740329	0.046137234721396
2	6735	66.752303740329	0.046137234721396
2	6745	66.852303740329	0.046137234721396
2	6755	66.952303740329	0.046137234721396
2	6765	67.052303740329	0.046137234721396
2	6775	67.152303740329	0.046137234721396
2	6777	67.168670473	0.045675862374182
2	6777	67.168670473	0.045675862374182
2	6785	67.252303740329	0.045675862374182
2	6795	67.352303740329	0.045675862374182
2	6805	67.452303740329	0.045675862374182
2	6815	67.552303740329	0.045675862374182
2	6825	67.652303740329	0.045675862374182
2	6835	67.752303740329	0.045675862374182
2	6845	67.852303740329	0.04521910375044
2	6845	67.852303740329	0.04521910375044
2	6847	67.867684357	0.04521910375044
2	6855	67.952303740329	0.04521910375044
2	6865	68.052303740329	0.04521910375044
2	6875	68.152303740329	0.04521910375044
2	6886	68.252303740329	0.04521910375044
2	6896	68.352303740329	0.04521910375044
2	6906	68.452303740329	0.04521910375044
2	6916	68.552303740329	0.04521910375044
2	6926	68.652303740329	0.04521910375044
2	6934	68.720490916	0.04521910375044
2	6936	68.752303740329	0.04521910375044
2	6946	68.852303740329	0.04521910375044
2	6956	68.952303740329	0.04521910375044
2	6966	69.052303740329	0.04521910375044
2	6976	69.152303740329	0.04521910375044
2	6986	69.252303740329	0.04521910375044
2	6996	69.352303740329	0.04521910375044
2	7005	69.449581528	0.04521910375044
2	7006	69.452303740329	0.04521910375044
2	7016	69.552303740329	0.04521910375044
2	7026	69.652303740329	0.04521910375044
2	7036	69.752303740329	0.04521910375044
2	7046	69.852303740329	0.04521910375044
2	7056	69.952303740329	0.04521910375044
2	7066	70.052303740329	0.04521910375044
2	7076	70.152303740329	0.04521910375044
2	7083	70.21930084	0.04521910375044
3	0	0	0.004
3	1635	16.347064180528	0
3	2211	21.910955105011	0.004
3	4336	42.993122123816	0
4	0	0	0.05
4	0	0.1	0.05
4	10	0.16163209	0.05
4	13	0.2	0.05
4	23	0.3	0.05
4	33	0.4	0.05
4	43	0.5	0.05
4	54	0.6	0.05
4	64	0.7	0.05
4	74	0.8	0.05
4	84	0.9	0.05
4	94	1	0.05
4	101	1.025604676	0.05
4	104	1.1	0.05
4	114	1.2	0.05
4	124	1.3	0.05
4	134	1.4	0.05
4	144	1.5	0.05
4	154	1.6	0.05
4	161	1.652090017	0.05
4	164	1.7	0.0495
4	164	1.7	0.0495
4	174	1.8	0.0499
4	184	1.9	0.05
4	194	2	0.05
4	204	2.1	0.05
4	214	2.2	0.05
4	224	2.3	0.05
4	231	2.336656504	0.05
4	234	2.4	0.05
4	244	2.5	0.05
4	254	2.6	0.05
4	264	2.7	0.05
4	274	2.8	0.05
4	284	2.9	0.05
4	294	3	0.05
4	301	3.097112506	0.05
4	304	3.1	0.05
4	314	3.2	0.0495
4	314	3.2	0.0495
4	324	3.3	0.0499
4	334	3.4	0.05
4	344	3.5	0.05
4	354	3.6	0.05
4	364	3.7	0.05
4	374	3.8	0.05
4	384	3.9	0.05
4	394	4	0.05
4	401	4.049114158	0.05
4	404	4.1	0.05
4	414	4.2	0.05
4	424	4.3	0.05
4	434	4.4	0.05
4	444	4.5	0.05
4	454	4.6	0.05
4	464	4.7	0.05
4	471	4.723096513	0.05
4	474	4.8	0.05
4	484	4.9	0.05
4	494	5	0.05
4	504	5.1	0.05
4	514	5.2	0.05
4	524	5.3	0.05
4	534	5.4	0.05
4	541	5.486432995	0.05
4	544	5.5	0.05
4	554	5.6	0.05
4	564	5.7	0.05
4	574	5.8	0.05
4	584	5.9	0.05
4	594	6	0.05
4	604	6.1	0.05
4	611	6.164374291	0.05
4	614	6.2	0.0495
4	614	6.2	0.0495
4	624	6.3	0.0499
4	634	6.4	0.05
4	644	6.5	0.05
4	654	6.6	0.05
4	664	6.7	0.05
4	671	6.717028471	0.05
4	674	6.8	0.05
4	684	6.9	0.05
4	694	7	0.05
4	704	7.1	0.05
4	711	7.170532606	0.05
4	714	7.2	0.05
4	724	7.3	0.05
4	734	7.4	0.05
4	744	7.5	0.05
4	754	7.6	0.05
4	761	7.685005525	0.05
4	764	7.7	0.05
4	774	7.8	0.05
4	784	7.9	0.05
4	794	8	0.05
4	804	8.1	0.05
4	814	8.2	0.05
4	821	8.26197256	0.05
4	824	8.3	0.05
4	834	8.4	0.05
4	844	8.5	0.05
4	854	8.6	0.05
4	864	8.7	0.05
4	874	8.8	0.05
4	884	8.9	0.05
4	891	8.996360068	0.05
4	894	9	0.05
4	904	9.1	0.0495
4	904	9.1	0.0495
4	914	9.2	0.0499
4	924	9.3	0.05
4	934	9.4	0.05
4	944	9.5	0.05
4	954	9.6	0.05
4	964	9.7	0.05
4	974	9.8	0.05
4	981	9.855350695	0.05
4	984	9.9	0.05
4	994	10	0.05
4	1004	10.1	0.05
4	1014	10.2	0.05
4	1025	10.3	0.05
4	1035	10.4	0.05
4	1045	10.5	0.05
4	1052	10.599999757	0.05
4	1055	10.6	0.05
4	1065	10.7	0.05
4	1075	10.8	0.05
4	1085	10.9	0.05
4	1095	11	0.05
4	1105	11.1	0.05
4	1112	11.193256087	0.05
4	1115	11.2	0.05
4	1125	11.3	0.05
4	1135	11.4	0.05
4	1145	11.5	0.05
4	1155	11.6	0.05
4	1165	11.7	0.05
4	1175	11.8	0.05
4	1182	11.895568861	0.05
4	1185	11.9	0.05
4	1195	12	0.05
4	1205	12.1	0.05
4	1215	12.2	0.05
4	1225	12.3	0.05
4	1235	12.4	0.05
4	1245	12.5	0.05
4	1255	12.6	0.05
4	1265	12.7	0.05
4	1272	12.752307871	0.05
4	1275	12.8	0.05
4	1285	12.9	0.05
4	1295	13	0.05
4	1305	13.1	0.05
4	1315	13.2	0.05
4	1325	13.3	0.05
4	1335	13.4	0.05
4	1345	13.5	0.05
4	1355	13.6	0.05
4	1365	13.7	0.05
4	1375	13.8	0.05
4	1385	13.9	0.05
4	1392	13.929623788	0.05
4	1395	14	0.05
4	1405	14.1	0.05
4	1415	14.2	0.05
4	1425	14.3	0.05
4	1435	14.4	0.05
4	1445	14.5	0.05
4	1455	14.6	0.05
4	1465	14.7	0.05
4	1475	14.8	0.05
4	1482	14.837976556	0.05
4	1485	14.9	0.05
4	1495	15	0.05
4	1505	15.1	0.05
4	1515	15.2	0.05
4	1525	15.3	0.05
4	1535	15.4	0.05
4	1546	15.5	0.05
4	1556	15.6	0.05
4	1566	15.7	0.05
4	1576	15.8	0.05
4	1586	15.9	0.05
4	1593	15.957034624	0.05
4	1596	16	0.05
4	1607	16.1	0.05
4	1617	16.2	0.05
4	1627	16.3	0.05
4	1639	16.4	0.05
4	1650	16.5	0.05
4	1662	16.6	0.05
4	1674	16.7	0.0495
4	1674	16.7	0.0495
4	1681	16.751650606	0.049706602424
4	1685	16.8	0.0499
4	1696	16.9	0.05
4	1708	17	0.05
4	1720	17.1	0.05
4	1731	17.2	0.05
4	1741	17.3	0.05
4	1749	17.317151029	0.05
4	1752	17.4	0.05
4	1762	17.5	0.05
4	1772	17.6	0.05
4	1782	17.7	0.05
4	1792	17.8	0.05
4	1802	17.9	0.05
4	1812	18	0.05
4	1819	18.095203642	0.05
4	1822	18.1	0.05
4	1832	18.2	0.05
4	1842	18.3	0.05
4	1852	18.4	0.05
4	1863	18.5	0.05
4	1873	18.6	0.05
4	1883	18.7	0.0495
4	1883	18.7	0.0495
4	1893	18.8	0.0499
4	1903	18.9	0.05
4	1910	18.972161368	0.05
4	1913	19	0.05
4	1923	19.1	0.05
4	1933	19.2	0.05
4	1943	19.3	0.05
4	1953	19.4	0.05
4	1963	19.5	0.05
4	1973	19.6	0.05
4	1983	19.7	0.05
4	1990	19.780051654	0.05
4	1993	19.8	0.05
4	2003	19.9	0.05
4	2013	20	0.05
4	2023	20.1	0.05
4	2033	20.2	0.0495
4	2033	20.2	0.0495
4	2043	20.3	0.0499
4	2050	20.391315385	0.05
4	2053	20.4	0.05
4	2063	20.5	0.05
4	2073	20.6	0.05
4	2083	20.7	0.05
4	2093	20.8	0.05
4	2103	20.9	0.05
4	2113	21	0.05
4	2123	21.1	0.05
4	2130	21.143113033	0.05
4	2133	21.2	0.05
4	2143	21.3	0.05
4	2153	21.4	0.05
4	2163	21.5	0.05
4	2173	21.6	0.05
4	2183	21.7	0.0495
4	2183	21.7	0.0495
4	2190	21.73719358	0.04964877432
4	2193	21.8	0.0499
4	2203	21.9	0.05
4	2214	22	0.05
4	2225	22.1	0.05
4	2236	22.2	0.05
4	2247	22.3	0.05
4	2258	22.4	0.05
4	2265	22.468258612	0.05
4	2268	22.5	0.05
4	2279	22.6	0.05
4	2289	22.7	0.05
4	2299	22.8	0.0495
4	2299	22.8	0.0495
4	2309	22.9	0.0499
4	2319	23	0.05
4	2329	23.1	0.05
4	2339	23.2	0.05
4	2346	23.215856242	0.05
4	2349	23.3	0.05
4	2359	23.4	0.05
4	2369	23.5	0.05
4	2379	23.6	0.05
4	2389	23.7	0.05
4	2399	23.8	0.05
4	2409	23.9	0.05
4	2416	23.970167395	0.0495
4	2416	23.970167395	0.0495
4	2419	24	0.04961933042
4	2429	24.1	0.05
4	2439	24.2	0.05
4	2449	24.3	0.0495
4	2449	24.3	0.0495
4	2459	24.4	0.0499
4	2469	24.5	0.05
4	2479	24.6	0.05
4	2486	24.687367126	0.05
4	2489	24.7	0.05
4	2499	24.8	0.05
4	2509	24.9	0.05
4	2519	25	0.05
4	2529	25.1	0.05
4	2539	25.2	0.05
4	2549	25.3	0.05
4	2556	25.38732904	0.05
4	2559	25.4	0.05
4	2569	25.5	0.05
4	2579	25.6	0.05
4	2589	25.7	0.05
4	2599	25.8	0.0495
4	2599	25.8	0.0495
4	2609	25.9	0.0499
4	2619	26	0.05
4	2629	26.1	0.05
4	2636	26.158128052	0.05
4	2639	26.2	0.05
4	2649	26.3	0.05
4	2659	26.4	0.05
4	2669	26.5	0.05
4	2679	26.6	0.05
4	2689	26.7	0.05
4	2696	26.731991329	0.05
4	2699	26.8	0.05
4	2709	26.9	0.05
4	2719	27	0.05
4	2729	27.1	0.05
4	2739	27.2	0.05
4	2749	27.3	0.0495
4	2749	27.3	0.0495
4	2756	27.322861507	0.049591446028
4	2759	27.4	0.0499
4	2769	27.5	0.05
4	2779	27.6	0.05
4	2789	27.7	0.05
4	2799	27.8	0.05
4	2809	27.9	0.05
4	2816	27.926393128	0.05
4	2819	28	0.05
4	2829	28.1	0.05
4	2839	28.2	0.05
4	2849	28.3	0.05
4	2860	28.4	0.05
4	2870	28.5	0.05
4	2877	28.519172572	0.05
4	2880	28.6	0.05
4	2890	28.7	0.05
4	2900	28.8	0.05
4	2910	28.9	0.05
4	2920	29	0.05
4	2927	29.043412543	0.05
4	2930	29.1	0.05
4	2940	29.2	0.05
4	2950	29.3	0.05
4	2960	29.4	0.05
4	2971	29.5	0.05
4	2979	29.571596047	0.05
4	2981	29.6	0.05
4	2991	29.7	0.05
4	3001	29.8	0.05
4	3011	29.9	0.05
4	3021	30	0.05
4	3031	30.1	0.05
4	3041	30.2	0.05
4	3048	30.240919057	0.05
4	3051	30.3	0.05
4	3061	30.4	0.05
4	3072	30.5	0.05
4	3082	30.6	0.05
4	3093	30.7	0.05
4	3103	30.8	0.05
4	3110	30.844166287	0.05
4	3113	30.9	0.05
4	3123	31	0.05
4	3133	31.1	0.05
4	3143	31.2	0.05
4	3153	31.3	0.05
4	3163	31.4	0.05
4	3173	31.5	0.05
4	3181	31.593342103	0.05
4	3183	31.6	0.05
4	3193	31.7	0.05
4	3203	31.8	0.05
4	3213	31.9	0.0495
4	3213	31.9	0.0495
4	3224	32	0.0499
4	3232	32.08271131	0.05
4	3235	32.1	0.05
4	3245	32.2	0.05
4	3256	32.3	0.05
4	3267	32.4	0.05
4	3278	32.5	0.05
4	3289	32.6	0.05
4	3295	32.606351191	0.05
4	3299	32.7	0.05
4	3309	32.8	0.05
4	3319	32.9	0.05
4	3329	33	0.0495
4	3329	33	0.0495
4	3339	33.1	0.0499
4	3346	33.141187663	0.05
4	3349	33.2	0.05
4	3359	33.3	0.05
4	3369	33.4	0.05
4	3379	33.5	0.05
4	3389	33.6	0.05
4	3396	33.654148177	0.05
4	3399	33.7	0.05
4	3409	33.8	0.05
4	3419	33.9	0.05
4	3429	34	0.05
4	3439	34.1	0.05
4	3449	34.2	0.05
4	3459	34.3	0.05
4	3467	34.373588833	0.05
4	3469	34.4	0.0495
4	3469	34.4	0.0495
4	3479	34.5	0.0499
4	3489	34.6	0.05
4	3499	34.7	0.05
4	3509	34.8	0.05
4	3519	34.9	0.05
4	3526	34.933896277	0.05
4	3529	35	0.05
4	3539	35.1	0.05
4	3549	35.2	0.05
4	3559	35.3	0.05
4	3569	35.4	0.05
4	3579	35.5	0.05
4	3586	35.513085601	0.0495
4	3586	35.513085601	0.0495
4	3589	35.6	0.049847657596
4	3599	35.7	0.05
4	3609	35.8	0.05
4	3619	35.9	0.0495
4	3619	35.9	0.0495
4	3629	36	0.0499
4	3639	36.1	0.05
4	3649	36.2	0.05
4	3657	36.284342749	0.05
4	3659	36.3	0.05
4	3668	36.375102355383	0.05
4	3678	36.475102355383	0.05
4	3688	36.575102355383	0.05
4	3698	36.675102355383	0.05
4	3708	36.775102355383	0.05
4	3718	36.875102355383	0.05
4	3726	36.945994528	0.05
4	3729	36.975102355383	0.05
4	3739	37.075102355383	0.05
4	3749	37.175102355383	0.05
4	3759	37.275102355383	0.05
4	3769	37.375102355383	0.0495
4	3769	37.375102355383	0.0495
4	3779	37.475102355383	0.0499
4	3789	37.575102355383	0.05
4	3796	37.626133039	0.05
4	3799	37.675102355383	0.05
4	3809	37.775102355383	0.05
4	3819	37.875102355383	0.05
4	3829	37.975102355383	0.05
4	3839	38.075102355383	0.05
4	3849	38.175102355383	0.05
4	3859	38.275102355383	0.05
4	3869	38.375102355383	0.05
4	3877	38.465921563	0.05
4	3879	38.475102355383	0.05
4	3889	38.575102355383	0.05
4	3899	38.675102355383	0.05
4	3909	38.775102355383	0.05
4	3919	38.875102355383	0.0495
4	3919	38.875102355383	0.0495
4	3929	38.975102355383	0.0499
4	3939	39.075102355383	0.05
4	3950	39.175102355383	0.05
4	3957	39.23256133	0.05
4	3961	39.275102355383	0.05
4	3971	39.375102355383	0.05
4	3981	39.475102355383	0.05
4	3991	39.575102355383	0.05
4	4001	39.675102355383	0.05
4	4011	39.775102355383	0.0495
4	4011	39.775102355383	0.0495
4	4021	39.875102355383	0.0499
4	4031	39.975102355383	0.05
4	4031	39.982292194	0.05
4	4041	40.075102355383	0.05
4	4051	40.175102355383	0.05
4	4061	40.275102355383	0.05
4	4071	40.375102355383	0.05
4	4081	40.475102355383	0.05
4	4091	40.575102355383	0.05
4	4092	40.597923904	0.05
4	4101	40.675102355383	0.05
4	4111	40.775102355383	0.05
4	4121	40.875102355383	0.05
4	4131	40.975102355383	0.05
4	4141	41.075102355383	0.05
4	4151	41.175102355383	0.05
4	4151	41.177687533	0.05
4	4161	41.275102355383	0.05
4	4171	41.375102355383	0.05
4	4181	41.475102355383	0.05
4	4191	41.575102355383	0.05
4	4201	41.675102355383	0.05
4	4212	41.775102355383	0.05
4	4222	41.875102355383	0.05
4	4228	41.943739531	0.05
4	4232	41.975102355383	0.05
4	4242	42.075102355383	0.05
4	4252	42.175102355383	0.05
4	4262	42.275102355383	0.05
4	4272	42.375102355383	0.05
4	4282	42.475102355383	0.05
4	4293	42.575102355383	0.05
4	4304	42.675102355383	0.05
4	4304	42.692347144	0.05
4	4315	42.775102355383	0.05
4	4325	42.875102355383	0.05
4	4335	42.975102355383	0.0495
4	4335	42.975102355383	0.0495
4	4346	43.075102355383	0.0499
4	4356	43.175102355383	0.05
4	4366	43.275102355383	0.05
4	4376	43.375102355383	0.05
4	4376	43.383035938	0.05
4	4386	43.475102355383	0.05
4	4396	43.575102355383	0.05
4	4406	43.675102355383	0.05
4	4416	43.775102355383	0.05
4	4426	43.875102355383	0.05
4	4436	43.975102355383	0.05
4	4444	44.072107708	0.05
4	4446	44.075102355383	0.05
4	4456	44.175102355383	0.05
4	4466	44.275102355383	0.05
4	4476	44.375102355383	0.05
4	4486	44.475102355383	0.05
4	4496	44.575102355383	0.05
4	4502	44.657668096	0.05
4	4506	44.675102355383	0.05
4	4516	44.775102355383	0.05
4	4526	44.875102355383	0.05
4	4536	44.975102355383	0.05
4	4546	45.075102355383	0.05
4	4556	45.175102355383	0.05
4	4566	45.275102355383	0.05
4	4572	45.318067927	0.05
4	4576	45.375102355383	0.05
4	4586	45.475102355383	0.05
4	4596	45.575102355383	0.05
4	4606	45.675102355383	0.05
4	4616	45.775102355383	0.05
4	4626	45.875102355383	0.05
4	4632	45.924911839	0.05
4	4636	45.975102355383	0.05
4	4646	46.075102355383	0.05
4	4656	46.175102355383	0.05
4	4667	46.275102355383	0.05
4	4677	46.375102355383	0.05
4	4687	46.475102355383	0.05
4	4697	46.575102355383	0.05
4	4707	46.675102355383	0.05
4	4713	46.716871738	0.05
4	4717	46.775102355383	0.0495
4	4717	46.775102355383	0.0495
4	4727	46.875102355383	0.0499
4	4737	46.975102355383	0.05
4	4747	47.075102355383	0.05
4	4757	47.175102355383	0.05
4	4767	47.275102355383	0.05
4	4773	47.350235017	0.05
4	4777	47.375102355383	0.05
4	4787	47.475102355383	0.05
4	4797	47.575102355383	0.05
4	4807	47.675102355383	0.05
4	4817	47.775102355383	0.05
4	4827	47.875102355383	0.05
4	4837	47.975102355383	0.05
4	4837	47.983255123	0.05
4	4847	48.075102355383	0.05
4	4857	48.175102355383	0.05
4	4867	48.275102355383	0.0495
4	4867	48.275102355383	0.0495
4	4877	48.375102355383	0.0499
4	4887	48.475102355383	0.05
4	4897	48.575102355383	0.05
4	4903	48.639428083	0.05
4	4907	48.675102355383	0.05
4	4917	48.775102355383	0.05
4	4927	48.875102355383	0.05
4	4937	48.975102355383	0.05
4	4947	49.075102355383	0.05
4	4957	49.175102355383	0.05
4	4967	49.275102355383	0.05
4	4967	49.285314469	0.05
4	4977	49.375102355383	0.05
4	4987	49.475102355383	0.05
4	4997	49.575102355383	0.05
4	5007	49.675102355383	0.05
4	5017	49.775102355383	0.0495
4	5017	49.775102355383	0.0495
4	5027	49.875102355383	0.0499
4	5033	49.925288065	0.05
4	5037	49.975102355383	0.05
4	5047	50.075102355383	0.05
4	5057	50.175102355383	0.05
4	5067	50.275102355383	0.05
4	5077	50.375102355383	0.05
4	5087	50.475102355383	0.05
4	5093	50.546414362	0.05
4	5097	50.575102355383	0.05
4	5107	50.675102355383	0.05
4	5117	50.775102355383	0.05
4	5127	50.875102355383	0.05
4	5137	50.975102355383	0.05
4	5148	51.075102355383	0.05
4	5158	51.175102355383	0.05
4	5158	51.187620604	0.0495
4	5158	51.187620604	0.0495
4	5168	51.275102355383	0.049849927005532
4	5178	51.375102355383	0.05
4	5188	51.475102355383	0.05
4	5198	51.575102355383	0.05
4	5208	51.675102355383	0.05
4	5218	51.775102355383	0.05
4	5224	51.853344088	0.05
4	5228	51.875102355383	0.05
4	5239	51.975102355383	0.05
4	5249	52.075102355383	0.0495
4	5249	52.075102355383	0.0495
4	5259	52.175102355383	0.0499
4	5269	52.275102355383	0.05
4	5279	52.375102355383	0.05
4	5289	52.475102355383	0.05
4	5299	52.575102355383	0.05
4	5299	52.582813525	0.05
4	5309	52.675102355383	0.05
4	5319	52.775102355383	0.05
4	5329	52.875102355383	0.05
4	5339	52.975102355383	0.05
4	5349	53.075102355383	0.05
4	5355	53.140734691	0.05
4	5359	53.175102355383	0.05
4	5369	53.275102355383	0.05
4	5379	53.375102355383	0.05
4	5389	53.475102355383	0.05
4	5399	53.575102355383	0.0495
4	5399	53.575102355383	0.0495
4	5409	53.675102355383	0.0499
4	5409	53.677101814	0.049907997834468
4	5419	53.775102355383	0.05
4	5429	53.875102355383	0.05
4	5439	53.975102355383	0.05
4	5449	54.075102355383	0.05
4	5459	54.175102355383	0.05
4	5469	54.275102355383	0.05
4	5475	54.335016337	0.05
4	5479	54.375102355383	0.05
4	5490	54.475102355383	0.05
4	5500	54.575102355383	0.05
4	5510	54.675102355383	0.05
4	5520	54.775102355383	0.05
4	5529	54.874357771	0.05
4	5530	54.875102355383	0.05
4	5540	54.975102355383	0.05
4	5550	55.075102355383	0.05
4	5560	55.175102355383	0.05
4	5570	55.275102355383	0.05
4	5580	55.375102355383	0.05
4	5590	55.475102355383	0.05
4	5596	55.54260052	0.05
4	5600	55.575102355383	0.05
4	5611	55.675102355383	0.05
4	5622	55.775102355383	0.05
4	5632	55.875102355383	0.05
4	5643	55.975102355383	0.05
4	5653	56.075102355383	0.05
4	5660	56.124464137	0.05
4	5664	56.175102355383	0.05
4	5675	56.275102355383	0.05
4	5686	56.375102355383	0.05
4	5696	56.475102355383	0.05
4	5706	56.575102355383	0.05
4	5716	56.675102355383	0.05
4	5722	56.750425357	0.05
4	5726	56.775102355383	0.05
4	5736	56.875102355383	0.05
4	5746	56.975102355383	0.05
4	5756	57.075102355383	0.05
4	5766	57.175102355383	0.05
4	5776	57.275102355383	0.05
4	5784	57.343401643	0.05
4	5787	57.375102355383	0.05
4	5797	57.475102355383	0.05
4	5807	57.575102355383	0.05
4	5817	57.675102355383	0.05
4	5827	57.775102355383	0.05
4	5837	57.875102355383	0.05
4	5844	57.942513223	0.05
4	5847	57.975102355383	0.05
4	5857	58.075102355383	0.05
4	5867	58.175102355383	0.05
4	5877	58.275102355383	0.05
4	5887	58.375102355383	0.05
4	5897	58.475102355383	0.0495
4	5897	58.475102355383	0.0495
4	5907	58.575102355383	0.0499
4	5907	58.593535561	0.049973732822468
4	5917	58.675102355383	0.05
4	5927	58.775102355383	0.05
4	5937	58.875102355383	0.05
4	5947	58.975102355383	0.05
4	5957	59.075102355383	0.05
4	5968	59.175102355383	0.05
4	5978	59.275102355383	0.05
4	5984	59.322686518	0.05
4	5988	59.375102355383	0.05
4	5998	59.475102355383	0.05
4	6008	59.575102355383	0.05
4	6018	59.675102355383	0.05
4	6028	59.775102355383	0.05
4	6038	59.875102355383	0.05
4	6048	59.975102355383	0.05
4	6048	59.987051353	0.05
4	6058	60.075102355383	0.05
4	6068	60.175102355383	0.05
4	6079	60.275102355383	0.05
4	6089	60.375102355383	0.05
4	6099	60.475102355383	0.05
4	6109	60.575102355383	0.05
4	6109	60.595596733	0.05
4	6119	60.675102355383	0.05
4	6129	60.775102355383	0.0495
4	6129	60.775102355383	0.0495
4	6139	60.875102355383	0.0499
4	6149	60.975102355383	0.05
4	6159	61.075102355383	0.05
4	6169	61.175102355383	0.05
4	6172	61.206675481	0.05
4	6179	61.275102355383	0.05
4	6190	61.375102355383	0.05
4	6196	61.419654839551	0.05
4	6206	61.519654839551	0.05
4	6216	61.619654839551	0.05
4	6226	61.719654839551	0.05
4	6236	61.819654839551	0.05
4	6236	61.826370559	0.05
4	6247	61.919654839551	0.05
4	6257	62.019654839551	0.05
4	6267	62.119654839551	0.05
4	6277	62.219654839551	0.05
4	6287	62.319654839551	0.05
4	6289	62.369052949	0.05
4	6297	62.419654839551	0.05
4	6308	62.519654839551	0.05
4	6318	62.619654839551	0.05
4	6328	62.719654839551	0.05
4	6338	62.819654839551	0.05
4	6348	62.919654839551	0.05
4	6348	62.945639131	0.05
4	6358	63.019654839551	0.05
4	6368	63.119654839551	0.05
4	6378	63.219654839551	0.05
4	6388	63.319654839551	0.05
4	6398	63.419654839551	0.05
4	6408	63.519654839551	0.05
4	6408	63.541568302	0.05
4	6418	63.619654839551	0.05
4	6428	63.719654839551	0.05
4	6438	63.819654839551	0.05
4	6448	63.919654839551	0.05
4	6458	64.019654839551	0.05
4	6463	64.098013348	0.05
4	6469	64.119654839551	0.05
4	6480	64.219654839551	0.05
4	6491	64.319654839551	0.05
4	6502	64.419654839551	0.05
4	6512	64.519654839551	0.05
4	6523	64.619654839551	0.05
4	6533	64.719654839551	0.05
4	6534	64.753641385	0.05
4	6543	64.819654839551	0.05
4	6553	64.919654839551	0.05
4	6555	64.956352146224	0.05
4	6564	65.019654839551	0.05
4	6574	65.119654839551	0.05
4	6584	65.219654839551	0.05
4	6594	65.319654839551	0.05
4	6604	65.419654839551	0.05
4	6614	65.519654839551	0.05
4	6624	65.619654839551	0.05
4	6628	65.677615882	0.0495
4	6628	65.677615882	0.0495
4	6634	65.719654839551	0.0495
4	6644	65.819654839551	0.0495
4	6654	65.919654839551	0.0495
4	6664	66.019654839551	0.0495
4	6674	66.119654839551	0.0495
4	6684	66.219654839551	0.0495
4	6694	66.319654839551	0.0495
4	6698	66.390481462	0.0495
4	6704	66.419654839551	0.0495
4	6714	66.519654839551	0.0495
4	6724	66.619654839551	0.0495
4	6734	66.719654839551	0.0495
4	6744	66.819654839551	0.0495
4	6754	66.919654839551	0.0495
4	6764	67.019654839551	0.0495
4	6774	67.119654839551	0.0495
4	6777	67.168670473	0.0495
4	6784	67.219654839551	0.0495
4	6794	67.319654839551	0.0495
4	6804	67.419654839551	0.0495
4	6814	67.519654839551	0.0495
4	6824	67.619654839551	0.0495
4	6834	67.719654839551	0.0495
4	6844	67.819654839551	0.0495
4	6847	67.867684357	0.0495
4	6854	67.919654839551	0.0495
4	6864	68.019654839551	0.0495
4	6874	68.119654839551	0.0495
4	6884	68.219654839551	0.0495
4	6894	68.319654839551	0.0495
4	6904	68.419654839551	0.0495
4	6914	68.519654839551	0.0495
4	6924	68.619654839551	0.0495
4	6934	68.719654839551	0.0495
4	6934	68.720490916	0.0495
4	6944	68.819654839551	0.0495
4	6954	68.919654839551	0.0495
4	6964	69.019654839551	0.0495
4	6974	69.119654839551	0.0495
4	6984	69.219654839551	0.0495
4	6994	69.319654839551	0.0495
4	7004	69.419654839551	0.0495
4	7005	69.449581528	0.0495
4	7014	69.519654839551	0.0495
4	7024	69.619654839551	0.0495
4	7034	69.719654839551	0.0495
4	7044	69.819654839551	0.0495
4	7054	69.919654839551	0.0495
4	7064	70.019654839551	0.0495
4	7074	70.119654839551	0.0495
4	7083	70.21930084	0.0495
5	0	0	0.004
5	6555	64.956352146224	0
6	0	0	0.05
6	0	0.1	0.05
6	10	0.16163209	0.05
6	14	0.2	0.0495
6	14	0.2	0.0495
6	24	0.3	0.0499
6	34	0.4	0.05
6	44	0.5	0.05
6	55	0.6	0.05
6	65	0.7	0.05
6	75	0.8	0.05
6	85	0.9	0.05
6	95	1	0.05
6	101	1.025604676	0.05
6	105	1.1	0.05
6	115	1.2	0.05
6	125	1.3	0.05
6	135	1.4	0.05
6	145	1.5	0.05
6	155	1.6	0.05
6	161	1.652090017	0.05
6	165	1.7	0.05
6	175	1.8	0.05
6	185	1.9	0.05
6	195	2	0.05
6	205	2.1	0.05
6	215	2.2	0.05
6	225	2.3	0.05
6	231	2.336656504	0.0495
6	231	2.336656504	0.0495
6	235	2.4	0.049753373984
6	245	2.5	0.05
6	255	2.6	0.05
6	265	2.7	0.05
6	275	2.8	0.05
6	285	2.9	0.05
6	295	3	0.05
6	301	3.097112506	0.05
6	305	3.1	0.05
6	315	3.2	0.05
6	325	3.3	0.05
6	335	3.4	0.05
6	345	3.5	0.05
6	355	3.6	0.05
6	365	3.7	0.05
6	375	3.8	0.05
6	385	3.9	0.05
6	395	4	0.05
6	401	4.049114158	0.05
6	405	4.1	0.05
6	415	4.2	0.05
6	425	4.3	0.05
6	435	4.4	0.05
6	445	4.5	0.05
6	455	4.6	0.05
6	465	4.7	0.05
6	471	4.723096513	0.05
6	475	4.8	0.05
6	485	4.9	0.05
6	495	5	0.05
6	505	5.1	0.05
6	515	5.2	0.05
6	525	5.3	0.05
6	535	5.4	0.05
6	541	5.486432995	0.05
6	545	5.5	0.05
6	555	5.6	0.05
6	565	5.7	0.05
6	575	5.8	0.05
6	585	5.9	0.05
6	595	6	0.05
6	605	6.1	0.05
6	611	6.164374291	0.05
6	615	6.2	0.05
6	625	6.3	0.05
6	635	6.4	0.05
6	645	6.5	0.05
6	655	6.6	0.05
6	665	6.7	0.05
6	671	6.717028471	0.05
6	675	6.8	0.05
6	685	6.9	0.05
6	695	7	0.05
6	705	7.1	0.05
6	711	7.170532606	0.05
6	715	7.2	0.05
6	725	7.3	0.05
6	735	7.4	0.05
6	745	7.5	0.05
6	755	7.6	0.05
6	761	7.685005525	0.05
6	765	7.7	0.05
6	775	7.8	0.05
6	785	7.9	0.05
6	795	8	0.05
6	805	8.1	0.05
6	815	8.2	0.05
6	821	8.26197256	0.0495
6	821	8.26197256	0.0495
6	825	8.3	0.04965210976
6	835	8.4	0.05
6	845	8.5	0.05
6	855	8.6	0.05
6	865	8.7	0.05
6	875	8.8	0.05
6	885	8.9	0.05
6	891	8.996360068	0.05
6	895	9	0.05
6	905	9.1	0.05
6	915	9.2	0.05
6	925	9.3	0.05
6	935	9.4	0.05
6	945	9.5	0.05
6	955	9.6	0.05
6	965	9.7	0.05
6	975	9.8	0.05
6	981	9.855350695	0.05
6	985	9.9	0.05
6	995	10	0.05
6	1005	10.1	0.05
6	1015	10.2	0.05
6	1022	10.289449906065	0.05
6	1026	10.3	0.05
6	1036	10.4	0.05
6	1046	10.5	0.05
6	1052	10.599999757	0.05
6	1056	10.6	0.05
6	1066	10.7	0.05
6	1076	10.8	0.05
6	1086	10.9	0.05
6	1096	11	0.05
6	1106	11.1	0.05
6	1112	11.193256087	0.05
6	1116	11.2	0.05
6	1126	11.3	0.05
6	1136	11.4	0.05
6	1146	11.5	0.0495
6	1146	11.5	0.0495
6	1156	11.6	0.0495
6	1166	11.7	0.0495
6	1176	11.8	0.0495
6	1182	11.895568861	0.0495
6	1186	11.9	0.0495
6	1196	12	0.0495
6	1206	12.1	0.0495
6	1216	12.2	0.0495
6	1226	12.3	0.0495
6	1236	12.4	0.0495
6	1246	12.5	0.0495
6	1256	12.6	0.0495
6	1266	12.7	0.0495
6	1272	12.752307871	0.0495
6	1276	12.8	0.0495
6	1286	12.9	0.0495
6	1296	13	0.049005
6	1296	13	0.049005
6	1306	13.1	0.049005
6	1316	13.2	0.049005
6	1326	13.3	0.049005
6	1336	13.4	0.049005
6	1346	13.5	0.049005
6	1356	13.6	0.049005
6	1366	13.7	0.049005
6	1376	13.8	0.049005
6	1386	13.9	0.049005
6	1392	13.929623788	0.049005
6	1396	14	0.049005
6	1406	14.1	0.049005
6	1416	14.2	0.049005
6	1426	14.3	0.049005
6	1436	14.4	0.049005
6	1446	14.5	0.049005
6	1456	14.6	0.04851495
6	1456	14.6	0.04851495
6	1466	14.7	0.04851495
6	1476	14.8	0.04851495
6	1482	14.837976556	0.04851495
6	1486	14.9	0.04851495
6	1496	15	0.04851495
6	1506	15.1	0.04851495
6	1516	15.2	0.04851495
6	1526	15.3	0.04851495
6	1536	15.4	0.04851495
6	1547	15.5	0.04851495
6	1557	15.6	0.04851495
6	1567	15.7	0.04851495
6	1577	15.8	0.04851495
6	1587	15.9	0.04851495
6	1593	15.957034624	0.04851495
6	1597	16	0.04851495
6	1608	16.1	0.04851495
6	1618	16.2	0.04851495
6	1628	16.3	0.04851495
6	1640	16.4	0.0480298005
6	1640	16.4	0.0480298005
6	1651	16.5	0.0480298005
6	1658	16.545781916141	0.0480298005
6	1663	16.6	0.048246672835436
6	1670	16.663331791141	0.0485
6	1675	16.7	0.048646672835436
6	1681	16.751650606	0.048853275259436
6	1682	16.788331791141	0.049
6	1686	16.8	0.049046672835436
6	1697	16.9	0.049446672835436
6	1704	16.913331791141	0.0495
6	1709	17	0.049846672835436
6	1716	17.038331791141	0.05
6	1721	17.1	0.05
6	1732	17.2	0.0495
6	1732	17.2	0.0495
6	1742	17.3	0.0499
6	1749	17.317151029	0.049968604116
6	1753	17.4	0.05
6	1763	17.5	0.05
6	1773	17.6	0.05
6	1783	17.7	0.05
6	1793	17.8	0.05
6	1803	17.9	0.05
6	1813	18	0.05
6	1819	18.095203642	0.05
6	1823	18.1	0.05
6	1833	18.2	0.05
6	1843	18.3	0.05
6	1853	18.4	0.05
6	1864	18.5	0.05
6	1874	18.6	0.05
6	1884	18.7	0.05
6	1894	18.8	0.05
6	1904	18.9	0.05
6	1910	18.972161368	0.05
6	1914	19	0.05
6	1924	19.1	0.05
6	1934	19.2	0.05
6	1944	19.3	0.05
6	1954	19.4	0.05
6	1964	19.5	0.05
6	1974	19.6	0.05
6	1984	19.7	0.05
6	1990	19.780051654	0.05
6	1994	19.8	0.05
6	2004	19.9	0.05
6	2014	20	0.05
6	2024	20.1	0.05
6	2034	20.2	0.05
6	2044	20.3	0.05
6	2050	20.391315385	0.05
6	2054	20.4	0.05
6	2064	20.5	0.05
6	2074	20.6	0.05
6	2084	20.7	0.05
6	2094	20.8	0.05
6	2104	20.9	0.05
6	2114	21	0.05
6	2124	21.1	0.05
6	2130	21.143113033	0.05
6	2134	21.2	0.05
6	2144	21.3	0.05
6	2154	21.4	0.05
6	2164	21.5	0.05
6	2174	21.6	0.05
6	2184	21.7	0.05
6	2190	21.73719358	0.05
6	2194	21.8	0.05
6	2204	21.9	0.05
6	2215	22	0.05
6	2226	22.1	0.05
6	2237	22.2	0.05
6	2248	22.3	0.05
6	2259	22.4	0.05
6	2265	22.468258612	0.05
6	2269	22.5	0.05
6	2280	22.6	0.05
6	2290	22.7	0.05
6	2300	22.8	0.05
6	2310	22.9	0.05
6	2320	23	0.05
6	2330	23.1	0.05
6	2340	23.2	0.05
6	2346	23.215856242	0.05
6	2350	23.3	0.05
6	2360	23.4	0.05
6	2370	23.5	0.05
6	2380	23.6	0.05
6	2390	23.7	0.05
6	2400	23.8	0.05
6	2410	23.9	0.05
6	2416	23.970167395	0.05
6	2420	24	0.05
6	2430	24.1	0.05
6	2440	24.2	0.05
6	2450	24.3	0.05
6	2460	24.4	0.05
6	2470	24.5	0.05
6	2480	24.6	0.05
6	2486	24.687367126	0.05
6	2490	24.7	0.05
6	2500	24.8	0.05
6	2510	24.9	0.05
6	2520	25	0.05
6	2530	25.1	0.05
6	2540	25.2	0.05
6	2550	25.3	0.05
6	2556	25.38732904	0.05
6	2560	25.4	0.05
6	2570	25.5	0.05
6	2580	25.6	0.05
6	2590	25.7	0.05
6	2600	25.8	0.05
6	2610	25.9	0.05
6	2620	26	0.05
6	2630	26.1	0.05
6	2636	26.158128052	0.05
6	2640	26.2	0.05
6	2650	26.3	0.05
6	2660	26.4	0.05
6	2670	26.5	0.05
6	2680	26.6	0.05
6	2690	26.7	0.05
6	2696	26.731991329	0.05
6	2700	26.8	0.05
6	2710	26.9	0.05
6	2720	27	0.05
6	2730	27.1	0.05
6	2740	27.2	0.05
6	2750	27.3	0.05
6	2756	27.322861507	0.05
6	2760	27.4	0.05
6	2770	27.5	0.05
6	2780	27.6	0.05
6	2790	27.7	0.05
6	2800	27.8	0.05
6	2810	27.9	0.05
6	2816	27.926393128	0.05
6	2820	28	0.05
6	2830	28.1	0.05
6	2840	28.2	0.05
6	2850	28.3	0.05
6	2861	28.4	0.05
6	2871	28.5	0.05
6	2877	28.519172572	0.05
6	2881	28.6	0.05
6	2891	28.7	0.05
6	2901	28.8	0.05
6	2911	28.9	0.05
6	2921	29	0.05
6	2927	29.043412543	0.05
6	2931	29.1	0.05
6	2941	29.2	0.05
6	2951	29.3	0.05
6	2961	29.4	0.05
6	2972	29.5	0.05
6	2979	29.571596047	0.05
6	2982	29.6	0.05
6	2992	29.7	0.05
6	3002	29.8	0.05
6	3012	29.9	0.05
6	3022	30	0.05
6	3032	30.1	0.05
6	3042	30.2	0.05
6	3048	30.240919057	0.05
6	3052	30.3	0.05
6	3062	30.4	0.05
6	3073	30.5	0.05
6	3083	30.6	0.05
6	3094	30.7	0.05
6	3104	30.8	0.05
6	3110	30.844166287	0.05
6	3114	30.9	0.05
6	3124	31	0.05
6	3134	31.1	0.05
6	3144	31.2	0.05
6	3154	31.3	0.05
6	3164	31.4	0.05
6	3174	31.5	0.05
6	3181	31.593342103	0.05
6	3184	31.6	0.05
6	3194	31.7	0.05
6	3204	31.8	0.05
6	3214	31.9	0.05
6	3225	32	0.05
6	3232	32.08271131	0.05
6	3236	32.1	0.05
6	3246	32.2	0.05
6	3257	32.3	0.05
6	3268	32.4	0.05
6	3279	32.5	0.05
6	3290	32.6	0.05
6	3295	32.606351191	0.05
6	3300	32.7	0.05
6	3310	32.8	0.05
6	3320	32.9	0.05
6	3330	33	0.05
6	3340	33.1	0.05
6	3346	33.141187663	0.05
6	3350	33.2	0.05
6	3360	33.3	0.05
[...]
18	0	0	0.05
18	0	0.1	0.05
18	10	0.16163209	0.05
18	20	0.2	0.05
18	30	0.3	0.05
18	40	0.4	0.05
18	50	0.5	0.05
18	61	0.6	0.05
18	71	0.7	0.05
18	81	0.8	0.05
18	91	0.9	0.05
18	101	1	0.05
18	101	1.025604676	0.05
18	111	1.1	0.05
18	121	1.2	0.05
18	131	1.3	0.05
18	141	1.4	0.05
18	151	1.5	0.05
18	161	1.6	0.05
18	161	1.652090017	0.05
18	171	1.7	0.05
18	181	1.8	0.05
18	191	1.9	0.05
18	201	2	0.05
18	211	2.1	0.05
18	221	2.2	0.05
18	231	2.3	0.05
18	231	2.336656504	0.05
18	241	2.4	0.05
18	251	2.5	0.05
18	261	2.6	0.05
18	271	2.7	0.05
18	281	2.8	0.05
18	291	2.9	0.05
18	301	3	0.05
18	301	3.097112506	0.05
18	311	3.1	0.05
18	321	3.2	0.05
18	331	3.3	0.05
18	341	3.4	0.05
18	351	3.5	0.05
18	361	3.6	0.05
18	371	3.7	0.05
18	381	3.8	0.05
18	391	3.9	0.05
18	401	4	0.05
18	401	4.049114158	0.05
18	411	4.1	0.05
18	421	4.2	0.05
18	431	4.3	0.05
18	441	4.4	0.05
18	451	4.5	0.05
18	461	4.6	0.05
18	471	4.7	0.05
18	471	4.723096513	0.0495
18	471	4.723096513	0.0495
18	481	4.8	0.049807613948
18	491	4.9	0.05
18	501	5	0.05
18	511	5.1	0.05
18	521	5.2	0.05
18	531	5.3	0.05
18	541	5.4	0.05
18	541	5.486432995	0.05
18	551	5.5	0.05
18	561	5.6	0.05
18	571	5.7	0.05
18	581	5.8	0.05
18	591	5.9	0.05
18	601	6	0.05
18	611	6.1	0.05
18	611	6.164374291	0.05
18	621	6.2	0.05
18	631	6.3	0.05
18	641	6.4	0.05
18	651	6.5	0.05
18	661	6.6	0.05
18	671	6.7	0.05
18	671	6.717028471	0.05
18	681	6.8	0.05
18	691	6.9	0.05
18	701	7	0.05
18	711	7.1	0.05
18	711	7.170532606	0.05
18	721	7.2	0.05
18	731	7.3	0.05
18	741	7.4	0.05
18	751	7.5	0.05
18	761	7.6	0.05
18	761	7.685005525	0.0495
18	761	7.685005525	0.0495
18	771	7.7	0.0495599779
18	781	7.8	0.0499599779
18	791	7.9	0.05
18	801	8	0.05
18	811	8.1	0.05
18	821	8.2	0.05
18	821	8.26197256	0.05
18	831	8.3	0.05
18	841	8.4	0.05
18	851	8.5	0.05
18	861	8.6	0.05
18	871	8.7	0.05
18	881	8.8	0.05
18	891	8.9	0.05
18	891	8.996360068	0.05
18	901	9	0.05
18	911	9.1	0.05
18	921	9.2	0.05
18	931	9.3	0.05
18	941	9.4	0.05
18	951	9.5	0.05
18	961	9.6	0.05
18	971	9.7	0.05
18	981	9.8	0.05
18	981	9.855350695	0.05
18	991	9.9	0.05
18	1001	10	0.05
18	1011	10.1	0.05
18	1021	10.2	0.05
18	1032	10.3	0.05
18	1042	10.4	0.05
18	1052	10.5	0.05
18	1052	10.599999757	0.05
18	1062	10.6	0.05
18	1072	10.7	0.05
18	1082	10.8	0.05
18	1092	10.9	0.05
18	1102	11	0.05
18	1112	11.1	0.05
18	1112	11.193256087	0.05
18	1122	11.2	0.05
18	1132	11.3	0.05
18	1142	11.4	0.05
18	1152	11.5	0.05
18	1162	11.6	0.05
18	1172	11.7	0.05
18	1182	11.8	0.05
18	1182	11.895568861	0.05
18	1192	11.9	0.05
18	1202	12	0.05
18	1212	12.1	0.05
18	1222	12.2	0.05
18	1232	12.3	0.05
18	1242	12.4	0.05
18	1252	12.5	0.05
18	1262	12.6	0.05
18	1272	12.7	0.0495
18	1272	12.7	0.0495
18	1272	12.752307871	0.049709231484
18	1282	12.8	0.0499
18	1292	12.9	0.05
18	1302	13	0.05
18	1312	13.1	0.05
18	1322	13.2	0.05
18	1332	13.3	0.05
18	1342	13.4	0.05
18	1352	13.5	0.05
18	1362	13.6	0.05
18	1372	13.7	0.05
18	1382	13.8	0.05
18	1392	13.9	0.05
18	1392	13.929623788	0.05
18	1402	14	0.05
18	1412	14.1	0.05
18	1422	14.2	0.0495
18	1422	14.2	0.0495
18	1432	14.3	0.0499
18	1442	14.4	0.05
18	1452	14.5	0.05
18	1462	14.6	0.05
18	1472	14.7	0.05
18	1482	14.8	0.05
18	1482	14.837976556	0.05
18	1492	14.9	0.05
18	1502	15	0.05
18	1512	15.1	0.05
18	1522	15.2	0.05
18	1532	15.3	0.05
18	1542	15.4	0.05
18	1553	15.5	0.05
18	1563	15.6	0.05
18	1573	15.7	0.05
18	1583	15.8	0.05
18	1593	15.9	0.05
18	1593	15.957034624	0.05
18	1603	16	0.05
18	1614	16.1	0.05
18	1624	16.2	0.05
18	1634	16.3	0.05
18	1646	16.4	0.05
18	1657	16.5	0.05
18	1669	16.6	0.05
18	1681	16.7	0.05
18	1681	16.751650606	0.05
18	1692	16.8	0.05
18	1703	16.9	0.05
18	1715	17	0.05
18	1727	17.1	0.05
18	1738	17.2	0.05
18	1748	17.3	0.05
18	1749	17.317151029	0.05
18	1759	17.4	0.05
18	1769	17.5	0.05
18	1779	17.6	0.05
18	1789	17.7	0.05
18	1799	17.8	0.05
18	1809	17.9	0.05
18	1819	18	0.05
18	1819	18.095203642	0.05
18	1829	18.1	0.05
18	1839	18.2	0.05
18	1849	18.3	0.05
18	1859	18.4	0.05
18	1870	18.5	0.05
18	1880	18.6	0.05
18	1890	18.7	0.05
18	1900	18.8	0.05
18	1910	18.9	0.05
18	1910	18.972161368	0.05
18	1920	19	0.05
18	1930	19.1	0.05
18	1940	19.2	0.05
18	1950	19.3	0.05
18	1960	19.4	0.05
18	1970	19.5	0.05
18	1980	19.6	0.05
18	1990	19.7	0.05
18	1990	19.780051654	0.05
18	2000	19.8	0.05
18	2010	19.9	0.05
18	2020	20	0.05
18	2030	20.1	0.05
18	2040	20.2	0.05
18	2050	20.3	0.05
18	2050	20.391315385	0.05
18	2060	20.4	0.05
18	2070	20.5	0.05
18	2080	20.6	0.05
18	2090	20.7	0.05
18	2100	20.8	0.05
18	2110	20.9	0.05
18	2120	21	0.05
18	2130	21.1	0.05
18	2130	21.143113033	0.05
18	2140	21.2	0.05
18	2150	21.3	0.05
18	2160	21.4	0.05
18	2170	21.5	0.05
18	2180	21.6	0.05
18	2190	21.7	0.05
18	2190	21.73719358	0.05
18	2200	21.8	0.05
18	2210	21.9	0.05
18	2221	22	0.05
18	2232	22.1	0.05
18	2243	22.2	0.05
18	2254	22.3	0.05
18	2265	22.4	0.05
18	2265	22.468258612	0.05
18	2275	22.5	0.05
18	2286	22.6	0.05
18	2296	22.7	0.05
18	2306	22.8	0.05
18	2316	22.9	0.05
18	2326	23	0.05
18	2336	23.1	0.05
18	2346	23.2	0.05
18	2346	23.215856242	0.05
18	2356	23.3	0.05
18	2366	23.4	0.05
18	2376	23.5	0.05
18	2386	23.6	0.05
18	2396	23.7	0.05
18	2406	23.8	0.05
18	2416	23.9	0.05
18	2416	23.970167395	0.05
18	2426	24	0.05
18	2436	24.1	0.05
18	2446	24.2	0.05
18	2456	24.3	0.05
18	2466	24.4	0.05
18	2476	24.5	0.05
18	2486	24.6	0.05
18	2486	24.687367126	0.05
18	2496	24.7	0.05
18	2506	24.8	0.05
18	2516	24.9	0.05
18	2526	25	0.05
18	2536	25.1	0.05
18	2546	25.2	0.05
18	2556	25.3	0.05
18	2556	25.38732904	0.05
18	2566	25.4	0.05
18	2576	25.5	0.05
18	2586	25.6	0.05
18	2596	25.7	0.05
18	2606	25.8	0.05
18	2616	25.9	0.05
18	2626	26	0.05
18	2636	26.1	0.05
18	2636	26.158128052	0.05
18	2646	26.2	0.05
18	2656	26.3	0.05
18	2666	26.4	0.05
18	2676	26.5	0.05
18	2686	26.6	0.05
18	2696	26.7	0.05
18	2696	26.731991329	0.05
18	2706	26.8	0.05
18	2716	26.9	0.05
18	2726	27	0.05
18	2736	27.1	0.05
18	2746	27.2	0.05
18	2756	27.3	0.05
18	2756	27.322861507	0.05
18	2766	27.4	0.05
18	2776	27.5	0.05
18	2786	27.6	0.05
18	2796	27.7	0.05
18	2806	27.8	0.05
18	2816	27.9	0.05
18	2816	27.926393128	0.05
18	2826	28	0.05
18	2836	28.1	0.05
18	2846	28.2	0.05
18	2856	28.3	0.05
18	2859	28.398473542756	0.05
18	2867	28.4	0.05
18	2877	28.5	0.05
18	2877	28.519172572	0.05
18	2887	28.6	0.05
18	2897	28.7	0.05
18	2907	28.8	0.05
18	2917	28.9	0.05
18	2927	29	0.05
18	2927	29.043412543	0.05
18	2937	29.1	0.05
18	2947	29.2	0.0495
18	2947	29.2	0.0495
18	2957	29.3	0.0495
18	2967	29.4	0.0495
18	2977	29.5	0.0495
18	2979	29.571596047	0.0495
18	2987	29.6	0.0495
18	2997	29.7	0.0495
18	3007	29.8	0.0495
18	3017	29.9	0.0495
18	3027	30	0.0495
18	3037	30.1	0.0495
18	3047	30.2	0.0495
18	3048	30.240919057	0.0495
18	3057	30.3	0.0495
18	3067	30.4	0.0495
18	3070	30.495204601799	0.0495
18	3078	30.5	0.049519181592804
18	3088	30.6	0.049919181592804
18	3090	30.620204601799	0.05
18	3099	30.7	0.05
18	3109	30.8	0.05
18	3110	30.844166287	0.05
18	3119	30.9	0.05
18	3129	31	0.05
18	3139	31.1	0.05
18	3149	31.2	0.05
18	3159	31.3	0.05
18	3169	31.4	0.05
18	3179	31.5	0.05
18	3181	31.593342103	0.05
18	3189	31.6	0.05
18	3199	31.7	0.05
18	3209	31.8	0.05
18	3219	31.9	0.05
18	3230	32	0.05
18	3232	32.08271131	0.05
18	3241	32.1	0.05
18	3251	32.2	0.05
18	3262	32.3	0.05
18	3273	32.4	0.05
18	3284	32.5	0.05
18	3295	32.6	0.05
18	3295	32.606351191	0.05
18	3305	32.7	0.05
18	3315	32.8	0.05
18	3325	32.9	0.05
18	3335	33	0.05
18	3345	33.1	0.05
18	3346	33.141187663	0.05
18	3355	33.2	0.05
18	3365	33.3	0.05
18	3375	33.4	0.05
18	3385	33.5	0.05
18	3395	33.6	0.05
18	3396	33.654148177	0.05
18	3405	33.7	0.05
18	3415	33.8	0.05
18	3425	33.9	0.05
18	3435	34	0.05
18	3445	34.1	0.0495
18	3445	34.1	0.0495
18	3455	34.2	0.0499
18	3465	34.3	0.05
18	3467	34.373588833	0.05
18	3475	34.4	0.05
18	3485	34.5	0.05
18	3495	34.6	0.05
18	3505	34.7	0.05
18	3515	34.8	0.05
18	3525	34.9	0.05
18	3526	34.933896277	0.05
18	3535	35	0.05
18	3545	35.1	0.05
18	3555	35.2	0.05
18	3565	35.3	0.05
18	3575	35.4	0.05
18	3585	35.5	0.05
18	3586	35.513085601	0.05
18	3595	35.6	0.05
18	3605	35.7	0.05
18	3615	35.8	0.05
18	3625	35.9	0.05
18	3635	36	0.05
18	3645	36.1	0.05
18	3655	36.2	0.05
18	3657	36.284342749	0.05
18	3665	36.3	0.05
18	3675	36.4	0.05
18	3685	36.5	0.05
18	3695	36.6	0.05
18	3705	36.7	0.05
18	3715	36.8	0.05
18	3725	36.9	0.05
18	3726	36.945994528	0.05
18	3735	37	0.0495
18	3735	37	0.0495
18	3745	37.1	0.0499
18	3755	37.2	0.05
18	3765	37.3	0.05
18	3775	37.4	0.05
18	3785	37.5	0.05
18	3795	37.6	0.05
18	3796	37.626133039	0.05
18	3805	37.7	0.05
18	3815	37.8	0.05
18	3825	37.9	0.05
18	3835	38	0.05
18	3845	38.1	0.05
18	3855	38.2	0.05
18	3865	38.3	0.05
18	3875	38.4	0.05
18	3877	38.465921563	0.05
18	3885	38.5	0.0495
18	3885	38.5	0.0495
18	3895	38.6	0.0499
18	3905	38.7	0.05
18	3915	38.8	0.05
18	3925	38.9	0.05
18	3935	39	0.05
18	3945	39.1	0.05
18	3955	39.2	0.05
18	3957	39.23256133	0.05
18	3966	39.3	0.05
18	3976	39.4	0.05
18	3986	39.5	0.05
18	3996	39.6	0.05
18	4006	39.7	0.05
18	4016	39.8	0.05
18	4026	39.9	0.05
18	4031	39.982292194	0.05
18	4036	40	0.05
18	4046	40.1	0.05
18	4056	40.2	0.05
18	4066	40.3	0.05
18	4076	40.4	0.05
18	4086	40.5	0.05
18	4092	40.597923904	0.05
18	4096	40.6	0.05
18	4106	40.7	0.05
18	4116	40.8	0.05
18	4126	40.9	0.05
18	4136	41	0.05
18	4146	41.1	0.05
18	4151	41.177687533	0.05
18	4156	41.2	0.05
18	4166	41.3	0.05
18	4176	41.4	0.05
18	4186	41.5	0.05
18	4196	41.6	0.05
18	4206	41.7	0.05
18	4207	41.704210249019	0.05
18	4217	41.804210249019	0.05
18	4227	41.904210249019	0.05
18	4228	41.943739531	0.05
18	4237	42.004210249019	0.05
18	4247	42.104210249019	0.05
18	4257	42.204210249019	0.05
18	4267	42.304210249019	0.05
18	4277	42.404210249019	0.0495
18	4277	42.404210249019	0.0495
18	4287	42.504210249019	0.0499
18	4298	42.604210249019	0.05
18	4304	42.692347144	0.05
18	4309	42.704210249019	0.05
18	4320	42.804210249019	0.05
18	4330	42.904210249019	0.05
18	4341	43.004210249019	0.05
18	4351	43.104210249019	0.05
18	4361	43.204210249019	0.05
18	4371	43.304210249019	0.05
18	4376	43.383035938	0.05
18	4381	43.404210249019	0.05
18	4391	43.504210249019	0.05
18	4401	43.604210249019	0.05
18	4411	43.704210249019	0.05
18	4421	43.804210249019	0.05
18	4431	43.904210249019	0.05
18	4441	44.004210249019	0.05
18	4444	44.072107708	0.05
18	4451	44.104210249019	0.0495
18	4451	44.104210249019	0.0495
18	4461	44.204210249019	0.0499
18	4471	44.304210249019	0.05
18	4481	44.404210249019	0.05
18	4491	44.504210249019	0.05
18	4501	44.604210249019	0.05
18	4502	44.657668096	0.05
18	4511	44.704210249019	0.05
18	4521	44.804210249019	0.05
18	4531	44.904210249019	0.05
18	4541	45.004210249019	0.05
18	4551	45.104210249019	0.05
18	4561	45.204210249019	0.05
18	4571	45.304210249019	0.05
18	4572	45.318067927	0.05
18	4581	45.404210249019	0.05
18	4591	45.504210249019	0.05
18	4601	45.604210249019	0.0495
18	4601	45.604210249019	0.0495
18	4611	45.704210249019	0.0499
18	4621	45.804210249019	0.05
18	4631	45.904210249019	0.05
18	4632	45.924911839	0.0495
18	4632	45.924911839	0.0495
18	4641	46.004210249019	0.049817193640076
18	4651	46.104210249019	0.05
18	4661	46.204210249019	0.05
18	4672	46.304210249019	0.05
18	4682	46.404210249019	0.05
18	4692	46.504210249019	0.05
18	4702	46.604210249019	0.05
18	4712	46.704210249019	0.05
18	4713	46.716871738	0.05
18	4722	46.804210249019	0.05
18	4732	46.904210249019	0.05
18	4742	47.004210249019	0.05
18	4752	47.104210249019	0.05
18	4762	47.204210249019	0.05
18	4772	47.304210249019	0.05
18	4773	47.350235017	0.05
18	4782	47.404210249019	0.05
18	4792	47.504210249019	0.05
18	4802	47.604210249019	0.05
18	4812	47.704210249019	0.05
18	4822	47.804210249019	0.05
18	4832	47.904210249019	0.05
18	4837	47.983255123	0.05
18	4842	48.004210249019	0.05
18	4852	48.104210249019	0.05
18	4862	48.204210249019	0.05
18	4872	48.304210249019	0.05
18	4882	48.404210249019	0.05
18	4892	48.504210249019	0.05
18	4902	48.604210249019	0.05
18	4903	48.639428083	0.05
18	4912	48.704210249019	0.05
18	4922	48.804210249019	0.05
18	4932	48.904210249019	0.05
18	4942	49.004210249019	0.05
18	4952	49.104210249019	0.05
18	4962	49.204210249019	0.05
18	4967	49.285314469	0.05
18	4972	49.304210249019	0.05
18	4982	49.404210249019	0.05
18	4992	49.504210249019	0.05
18	5002	49.604210249019	0.05
18	5012	49.704210249019	0.05
18	5022	49.804210249019	0.05
18	5032	49.904210249019	0.05
18	5033	49.925288065	0.05
18	5042	50.004210249019	0.05
18	5052	50.104210249019	0.05
18	5062	50.204210249019	0.05
18	5072	50.304210249019	0.05
18	5082	50.404210249019	0.05
18	5092	50.504210249019	0.05
18	5093	50.546414362	0.05
18	5102	50.604210249019	0.05
18	5112	50.704210249019	0.05
18	5122	50.804210249019	0.05
18	5132	50.904210249019	0.05
18	5142	51.004210249019	0.05
18	5153	51.104210249019	0.05
18	5158	51.187620604	0.05
18	5163	51.204210249019	0.05
18	5173	51.304210249019	0.05
18	5183	51.404210249019	0.05
18	5193	51.504210249019	0.05
18	5203	51.604210249019	0.05
18	5213	51.704210249019	0.05
18	5223	51.804210249019	0.05
18	5224	51.853344088	0.05
18	5233	51.904210249019	0.05
18	5243	52.004210249019	0.05
18	5253	52.104210249019	0.05
18	5263	52.204210249019	0.05
18	5273	52.304210249019	0.05
18	5283	52.404210249019	0.0495
18	5283	52.404210249019	0.0495
18	5293	52.504210249019	0.0499
18	5299	52.582813525	0.05
18	5303	52.604210249019	0.05
18	5313	52.704210249019	0.05
18	5323	52.804210249019	0.05
18	5333	52.904210249019	0.05
18	5343	53.004210249019	0.05
18	5353	53.104210249019	0.05
18	5355	53.140734691	0.05
18	5363	53.204210249019	0.05
18	5373	53.304210249019	0.05
18	5383	53.404210249019	0.05
18	5393	53.504210249019	0.05
18	5403	53.604210249019	0.05
18	5409	53.677101814	0.05
18	5413	53.704210249019	0.05
18	5423	53.804210249019	0.0495
18	5423	53.804210249019	0.0495
18	5433	53.904210249019	0.0499
18	5443	54.004210249019	0.05
18	5453	54.104210249019	0.05
18	5463	54.204210249019	0.05
18	5473	54.304210249019	0.05
18	5475	54.335016337	0.05
18	5484	54.404210249019	0.05
18	5494	54.504210249019	0.05
18	5504	54.604210249019	0.05
18	5514	54.704210249019	0.05
18	5524	54.804210249019	0.05
18	5529	54.874357771	0.05
18	5534	54.904210249019	0.05
18	5544	55.004210249019	0.05
18	5554	55.104210249019	0.05
18	5564	55.204210249019	0.05
18	5574	55.304210249019	0.05
18	5584	55.404210249019	0.05
18	5594	55.504210249019	0.05
18	5596	55.54260052	0.05
18	5605	55.604210249019	0.05
18	5615	55.704210249019	0.05
18	5626	55.804210249019	0.05
18	5636	55.904210249019	0.05
18	5647	56.004210249019	0.05
18	5658	56.104210249019	0.05
18	5660	56.124464137	0.05
18	5668	56.204210249019	0.05
18	5679	56.304210249019	0.05
18	5690	56.404210249019	0.05
18	5700	56.504210249019	0.05
18	5710	56.604210249019	0.05
18	5720	56.704210249019	0.05
18	5722	56.750425357	0.05
18	5730	56.804210249019	0.05
18	5740	56.904210249019	0.05
18	5750	57.004210249019	0.05
18	5760	57.104210249019	0.05
18	5770	57.204210249019	0.05
18	5780	57.304210249019	0.05
18	5784	57.343401643	0.05
18	5791	57.404210249019	0.05
18	5801	57.504210249019	0.05
18	5811	57.604210249019	0.05
18	5821	57.704210249019	0.05
18	5831	57.804210249019	0.05
18	5841	57.904210249019	0.05
18	5844	57.942513223	0.05
18	5851	58.004210249019	0.05
18	5861	58.104210249019	0.05
18	5871	58.204210249019	0.05
18	5881	58.304210249019	0.05
18	5891	58.404210249019	0.05
18	5901	58.504210249019	0.05
18	5907	58.593535561	0.05
18	5911	58.604210249019	0.05
18	5921	58.704210249019	0.0495
18	5921	58.704210249019	0.0495
18	5931	58.804210249019	0.0499
18	5941	58.904210249019	0.05
18	5951	59.004210249019	0.05
18	5961	59.104210249019	0.05
18	5971	59.204210249019	0.05
18	5981	59.304210249019	0.05
18	5984	59.322686518	0.05
18	5991	59.404210249019	0.05
18	6001	59.504210249019	0.05
18	6011	59.604210249019	0.05
18	6021	59.704210249019	0.05
18	6031	59.804210249019	0.05
18	6041	59.904210249019	0.05
18	6048	59.987051353	0.05
18	6051	60.004210249019	0.05
18	6061	60.104210249019	0.05
18	6071	60.204210249019	0.0495
18	6071	60.204210249019	0.0495
18	6082	60.304210249019	0.0499
18	6092	60.404210249019	0.05
18	6102	60.504210249019	0.05
18	6109	60.595596733	0.05
18	6112	60.604210249019	0.05
18	6122	60.704210249019	0.05
18	6132	60.804210249019	0.05
18	6142	60.904210249019	0.05
18	6152	61.004210249019	0.05
18	6162	61.104210249019	0.05
18	6172	61.204210249019	0.05
18	6172	61.206675481	0.05
18	6183	61.304210249019	0.05
18	6193	61.404210249019	0.05
18	6203	61.504210249019	0.05
18	6213	61.604210249019	0.05
18	6223	61.704210249019	0.05
18	6233	61.804210249019	0.05
18	6236	61.826370559	0.05
18	6244	61.904210249019	0.05
18	6254	62.004210249019	0.05
18	6264	62.104210249019	0.05
18	6274	62.204210249019	0.05
18	6284	62.304210249019	0.05
18	6289	62.369052949	0.05
18	6294	62.404210249019	0.05
18	6305	62.504210249019	0.05
18	6315	62.604210249019	0.05
18	6325	62.704210249019	0.05
18	6335	62.804210249019	0.05
18	6345	62.904210249019	0.05
18	6348	62.945639131	0.05
18	6355	63.004210249019	0.05
18	6365	63.104210249019	0.05
18	6375	63.204210249019	0.05
18	6385	63.304210249019	0.05
18	6395	63.404210249019	0.0495
18	6395	63.404210249019	0.0495
18	6405	63.504210249019	0.0499
18	6408	63.541568302	0.05
18	6415	63.604210249019	0.05
18	6425	63.704210249019	0.05
18	6435	63.804210249019	0.05
18	6445	63.904210249019	0.05
18	6455	64.004210249019	0.05
18	6463	64.098013348	0.05
18	6466	64.104210249019	0.05
18	6477	64.204210249019	0.0495
18	6477	64.204210249019	0.0495
18	6488	64.304210249019	0.0499
18	6499	64.404210249019	0.05
18	6509	64.504210249019	0.05
18	6520	64.604210249019	0.05
18	6530	64.704210249019	0.05
18	6534	64.753641385	0.05
18	6540	64.804210249019	0.05
18	6550	64.904210249019	0.05
18	6561	65.004210249019	0.05
18	6571	65.104210249019	0.05
18	6581	65.204210249019	0.05
18	6591	65.304210249019	0.05
18	6601	65.404210249019	0.05
18	6611	65.504210249019	0.05
18	6621	65.604210249019	0.05
18	6628	65.677615882	0.05
18	6631	65.704210249019	0.05
18	6641	65.804210249019	0.05
18	6651	65.904210249019	0.05
18	6661	66.004210249019	0.0495
18	6661	66.004210249019	0.0495
18	6671	66.104210249019	0.0499
18	6681	66.204210249019	0.05
18	6691	66.304210249019	0.05
18	6698	66.390481462	0.05
18	6701	66.404210249019	0.05
18	6711	66.504210249019	0.05
18	6721	66.604210249019	0.05
18	6731	66.704210249019	0.05
18	6741	66.804210249019	0.05
18	6751	66.904210249019	0.05
18	6761	67.004210249019	0.05
18	6771	67.104210249019	0.05
18	6777	67.168670473	0.05
18	6781	67.204210249019	0.05
18	6791	67.304210249019	0.05
18	6801	67.404210249019	0.05
18	6811	67.504210249019	0.0495
18	6811	67.504210249019	0.0495
18	6821	67.604210249019	0.0499
18	6831	67.704210249019	0.05
18	6841	67.804210249019	0.05
18	6847	67.867684357	0.05
18	6851	67.904210249019	0.05
18	6861	68.004210249019	0.05
18	6871	68.104210249019	0.05
18	6881	68.204210249019	0.05
18	6891	68.304210249019	0.05
18	6901	68.404210249019	0.05
18	6911	68.504210249019	0.05
18	6921	68.604210249019	0.05
18	6931	68.704210249019	0.05
18	6934	68.720490916	0.0495
18	6934	68.720490916	0.0495
18	6941	68.804210249019	0.049834877332076
18	6951	68.904210249019	0.05
18	6961	69.004210249019	0.0495
18	6961	69.004210249019	0.0495
18	6971	69.104210249019	0.0499
18	6981	69.204210249019	0.05
18	6991	69.304210249019	0.05
18	7001	69.404210249019	0.05
18	7005	69.449581528	0.05
18	7011	69.504210249019	0.05
18	7021	69.604210249019	0.05
18	7031	69.704210249019	0.05
18	7041	69.804210249019	0.05
18	7051	69.904210249019	0.05
18	7061	70.004210249019	0.05
18	7071	70.104210249019	0.05
18	7081	70.204210249019	0.05
18	7083	70.21930084	0.05
19	0	0	0.004
19	2859	28.398473542756	0
19	3070	30.495204601799	0.004
20	0	0	0.004
20	3957	39.222402940575	0
20	4288	42.508731627511	0.004
20	4665	46.271460600806	0
21	0	0	0.004
21	1635	16.347064180528	0
21	2211	21.910955105011	0.004
21	4336	42.993122123816	0
22	0	0	0.004
22	6555	64.956352146224	0
23	0	0	0.004
23	1022	10.289449906065	0
23	1658	16.545781916141	0.004
24	0	0	0.004
24	51	0.510639709977	0
24	1636	16.347205153044	0.004
24	4311	42.744977635907	0
24	5642	55.974628807962	0.004
24	6180	61.293729463676	0
25	0	0	0.004
26	0	0	0.004
26	5143	51.007856448547	0
27	0	0	0.004
27	1604	16.042729316953	0
27	3222	31.983522298308	0.004
27	5483	54.401130574475	0
27	5601	55.592535976301	0.004
27	6237	61.835533123629	0
28	0	0	0.004
28	1543	15.473236490668	0
28	2222	22.020726255229	0.004
28	5784	57.314848800557	0
28	6459	64.031448250521	0.004
29	0	0	0.004
29	2859	28.398473542756	0
29	3070	30.495204601799	0.004

