version 2
run Mysterio_ex2-0-20210813-15:14:49-12868
attr configname Mysterio_ex2
attr datetime 20210813-15:14:49
attr experiment Mysterio_ex2
attr inifile omnetpp.ini
attr iterationvars ""
attr iterationvarsf ""
attr measurement ""
attr network MysterioCommunication2
attr processid 12868
attr repetition 0
attr replication #0
attr resultdir results
attr runnumber 0
attr seedset 0
param *.host[*].mobility.numeroDrones 2
param *.numHosts 2
param *.host[*].osgModel "\"3d/drone.ive.100.scale.0,0,90.rot\""
param *.basestation.osgModel "\"3d/car.ive.50.scale.0,0,90.rot\""
param *.canvasVisualizer.energyStorageVisualizer.displayEnergyStorages true
param *.host[*].hasStatus true
param *.host[*].energyStorage.typename "\"SimpleEpEnergyStorage\""
param *.host[*].wlan[*].radio.energyConsumer.typename "\"StateBasedEpEnergyConsumer\""
param *.host[*].energyManagement.typename "\"SimpleEpEnergyManagement\""
param *.host[*].energyStorage.nominalCapacity 0.05J
param *.host[*].energyManagement.nodeShutdownCapacity "0.1 * energyStorage.nominalCapacity"
param *.host[*].energyManagement.nodeStartCapacity "0.5 * energyStorage.nominalCapacity"
param *.host[*].energyStorage.initialCapacity 0.05J
param *.host[*].energyGenerator.typename "\"AlternatingEpEnergyGenerator\""
param *.host[*].energyGenerator.powerGeneration 4mW
param *.host[*].energyGenerator.sleepInterval exponential(25s)
param *.host[*].energyGenerator.generationInterval exponential(25s)
param *.host[*].mobility.typename "\"UAVMobility\""
param *.host[*].mobility.changeInterval 1s
param *.host[*].mobility.initialMovementHeading "uniform(0deg, 360deg)"
param *.host[*].mobility.initialMovementElevation "uniform(-90deg, 90deg)"
param *.host[*].mobility.angleDelta uniform(-10deg,10deg)
param *.host[*].mobility.rotationAxisAngle uniform(-10deg,10deg)
param *.host[*].mobility.speed uniform(10mps,20mps)
param *.host[*].mobility.faceForward false
param *.host[*].mobility.initialX 220m
param *.host[*].mobility.initialY 220m
param *.host[*].mobility.initialZ 80m
param *.visualizer.osgVisualizer.typename "\"IntegratedOsgVisualizer\""
param *.visualizer.osgVisualizer.sceneVisualizer.clearColor "\"skyblue\""
param *.visualizer.osgVisualizer.sceneVisualizer.sceneImage "\"showcases/desert\""
param *.visualizer.osgVisualizer.sceneVisualizer.sceneImageSize 5000m
param *.visualizer.osgVisualizer.sceneVisualizer.axisLength 1000m
param *.visualizer.osgVisualizer.sceneVisualizer.sceneMinX -2000m
param *.visualizer.osgVisualizer.sceneVisualizer.sceneMinY -2000m
param *.visualizer.osgVisualizer.sceneVisualizer.sceneMinZ 0m
param *.visualizer.osgVisualizer.sceneVisualizer.sceneMaxX 3000m
param *.visualizer.osgVisualizer.sceneVisualizer.sceneMaxY 3000m
param *.visualizer.osgVisualizer.sceneVisualizer.sceneMaxZ 1000m
param *.visualizer.osgVisualizer.networkNodeVisualizer.displayModuleName false
param *.visualizer.*.mobilityVisualizer.displayMobility true
param *.visualizer.*.mobilityVisualizer.displayPositions true
param *.visualizer.*.mobilityVisualizer.displayOrientations false
param *.visualizer.*.mobilityVisualizer.displayVelocities true
param *.visualizer.*.mobilityVisualizer.displayMovementTrails true
param *.visualizer.*.mobilityVisualizer.animationSpeed 3
param **.constraintAreaMinX 0m
param **.constraintAreaMinY 0m
param **.constraintAreaMinZ 0m
param **.constraintAreaMaxX 1000m
param **.constraintAreaMaxY 1000m
param **.constraintAreaMaxZ 1000m
param **.networkConfiguratorModule "\"\""

vector 0 MysterioCommunication2.host[0].energyStorage residualEnergyCapacity:vector ETV
attr interpolationmode linear
attr source residualEnergyCapacityChanged
attr title "Residual energy capacity, vector"
vector 1 MysterioCommunication2.host[0].energyGenerator powerGeneration:vector ETV
attr interpolationmode sample-hold
attr source powerGenerationChanged
attr title "Power generation, vector"
vector 2 MysterioCommunication2.host[1].energyStorage residualEnergyCapacity:vector ETV
attr interpolationmode linear
attr source residualEnergyCapacityChanged
attr title "Residual energy capacity, vector"
vector 3 MysterioCommunication2.host[1].energyGenerator powerGeneration:vector ETV
attr interpolationmode sample-hold
attr source powerGenerationChanged
attr title "Power generation, vector"
vector 4 MysterioCommunication2.host[0].energyStorage powerGeneration:vector ETV
attr interpolationmode sample-hold
attr source powerGenerationChanged
attr title "Power generation, vector"
vector 5 MysterioCommunication2.host[1].energyStorage powerGeneration:vector ETV
attr interpolationmode sample-hold
attr source powerGenerationChanged
attr title "Power generation, vector"
0	0	0	0.05
0	0	0.1	0.05
0	2	0.155720605	0.05
0	3	0.2	0.05
0	5	0.3	0.05
0	7	0.4	0.05
0	9	0.5	0.05
0	10	0.589066576	0.05
0	11	0.6	0.05
0	13	0.7	0.05
0	15	0.8	0.05
0	17	0.9	0.05
0	19	1	0.05
0	21	1.1	0.05
0	23	1.2	0.05
0	25	1.3	0.05
0	26	1.385992075	0.0495
0	26	1.385992075	0.0495
0	27	1.4	0.0495560317
0	29	1.5	0.0499560317
0	31	1.6	0.05
0	33	1.7	0.05
0	35	1.8	0.05
0	36	1.810368712	0.05
0	37	1.9	0.05
0	39	2	0.05
0	41	2.1	0.05
0	43	2.2	0.05
0	44	2.240539588	0.05
0	45	2.3	0.05
0	47	2.4	0.05
0	49	2.5	0.05
0	50	2.521955887	0.05
0	51	2.6	0.05
0	53	2.7	0.05
0	55	2.8	0.05
0	57	2.9	0.05
0	58	2.981226811	0.05
0	59	3	0.05
0	61	3.1	0.05
0	62	3.176934658	0.05
0	63	3.2	0.05
0	65	3.3	0.05
0	66	3.385859743	0.05
0	67	3.4	0.05
0	69	3.5	0.05
0	71	3.6	0.05
0	73	3.7	0.05
0	74	3.795612604	0.05
0	75	3.8	0.05
0	77	3.9	0.05
0	79	4	0.05
0	80	4.053683743	0.05
0	81	4.1	0.05
0	83	4.2	0.05
0	85	4.3	0.05
0	87	4.4	0.05
0	89	4.5	0.05
0	90	4.511779867	0.05
0	91	4.6	0.05
0	93	4.7	0.05
0	95	4.8	0.05
0	97	4.9	0.05
0	98	4.904153905	0.05
0	99	5	0.05
0	101	5.1	0.05
0	103	5.2	0.05
0	105	5.3	0.05
0	106	5.337829363	0.0495
0	106	5.337829363	0.0495
0	107	5.4	0.049748682548
0	109	5.5	0.05
0	110	5.548823467	0.05
0	111	5.6	0.05
0	113	5.7	0.05
0	115	5.8	0.05
0	116	5.828629504	0.05
0	117	5.9	0.05
0	119	6	0.05
0	120	6.073233184	0.05
0	121	6.1	0.05
0	123	6.2	0.05
0	125	6.3	0.05
0	126	6.346422529	0.05
0	127	6.4	0.05
0	129	6.5	0.05
0	131	6.6	0.05
0	133	6.7	0.05
0	134	6.749672734	0.05
0	135	6.8	0.05
0	137	6.9	0.05
0	138	6.986917033	0.05
0	139	7	0.05
0	141	7.1	0.05
0	143	7.2	0.05
0	144	7.279210165	0.05
0	145	7.3	0.05
0	147	7.4	0.05
0	148	7.49350132	0.05
0	149	7.5	0.05
0	151	7.6	0.05
0	153	7.7	0.05
0	155	7.8	0.05
0	157	7.9	0.05
0	158	7.931175778	0.05
0	159	8	0.05
0	161	8.1	0.05
0	163	8.2	0.05
0	164	8.212561261	0.05
0	165	8.3	0.05
0	167	8.4	0.05
0	169	8.5	0.05
0	171	8.6	0.05
0	172	8.650931503	0.05
0	173	8.7	0.05
0	175	8.8	0.05
0	177	8.9	0.05
0	179	9	0.05
0	180	9.076547233	0.05
0	181	9.1	0.05
0	183	9.2	0.05
0	185	9.3	0.05
0	187	9.4	0.05
0	189	9.5	0.05
0	190	9.534424084	0.05
0	191	9.6	0.05
0	193	9.7	0.05
0	195	9.8	0.05
0	196	9.814818286	0.05
0	197	9.9	0.05
0	199	10	0.05
0	201	10.1	0.05
0	203	10.2	0.05
0	204	10.292825905	0.05
0	205	10.3	0.05
0	207	10.4	0.05
0	209	10.5	0.05
0	211	10.6	0.05
0	213	10.7	0.05
0	215	10.8	0.05
0	216	10.838312671	0.05
0	217	10.9	0.05
0	219	11	0.05
0	221	11.1	0.05
0	223	11.2	0.05
0	225	11.3	0.05
0	226	11.312646517	0.05
0	227	11.4	0.05
0	229	11.5	0.05
0	231	11.6	0.05
0	233	11.7	0.05
0	234	11.774655385	0.05
0	235	11.8	0.05
0	237	11.9	0.05
0	239	12	0.05
0	241	12.1	0.05
0	243	12.2	0.05
0	244	12.23636356	0.05
0	245	12.3	0.05
0	247	12.4	0.05
0	249	12.5	0.05
0	251	12.6	0.05
0	252	12.669088633	0.05
0	253	12.7	0.05
0	255	12.8	0.05
0	257	12.9	0.05
0	259	13	0.05
0	260	13.092028693	0.05
0	261	13.1	0.05
0	263	13.2	0.05
0	265	13.3	0.05
0	266	13.377631804	0.0495
0	266	13.377631804	0.0495
0	267	13.4	0.049589472784
0	269	13.5	0.049989472784
0	271	13.6	0.05
0	273	13.7	0.05
0	275	13.8	0.05
0	277	13.9	0.05
0	278	13.921385641	0.05
0	279	14	0.05
0	281	14.1	0.05
0	283	14.2	0.05
0	285	14.3	0.05
0	287	14.4	0.05
0	289	14.5	0.05
0	290	14.512010035	0.05
0	291	14.6	0.05
0	293	14.7	0.05
0	295	14.8	0.05
0	297	14.9	0.05
0	299	15	0.05
0	300	15.023936437	0.05
0	301	15.1	0.05
0	303	15.2	0.05
0	305	15.3	0.05
0	307	15.4	0.05
0	308	15.451532401	0.05
0	309	15.5	0.05
0	311	15.6	0.05
0	313	15.7	0.05
0	315	15.8	0.05
0	317	15.9	0.05
0	318	15.927433345	0.05
0	319	16	0.05
0	321	16.1	0.05
0	323	16.2	0.05
0	325	16.3	0.05
0	326	16.383553636	0.05
0	327	16.4	0.05
0	329	16.5	0.05
0	331	16.6	0.05
0	333	16.7	0.05
0	335	16.8	0.05
0	337	16.9	0.05
0	339	17	0.05
0	340	17.006297068	0.05
0	341	17.1	0.05
0	343	17.2	0.05
0	345	17.3	0.05
0	347	17.4	0.05
0	349	17.5	0.05
0	350	17.525879368	0.05
0	351	17.6	0.05
0	353	17.7	0.05
0	355	17.8	0.05
0	357	17.9	0.05
0	358	17.998622722	0.05
0	359	18	0.05
0	361	18.1	0.05
0	363	18.2	0.05
0	365	18.3	0.05
0	367	18.4	0.05
0	368	18.447873025	0.05
0	369	18.5	0.05
0	371	18.6	0.05
0	373	18.7	0.05
0	375	18.8	0.05
0	377	18.9	0.05
0	378	18.91082764	0.05
0	379	19	0.05
0	381	19.1	0.05
0	383	19.2	0.05
0	385	19.3	0.05
0	386	19.348233487	0.05
0	387	19.4	0.05
0	389	19.5	0.05
0	391	19.6	0.05
0	393	19.7	0.05
0	395	19.8	0.05
0	396	19.886545102	0.05
0	397	19.9	0.05
0	399	20	0.05
0	401	20.1	0.05
0	403	20.2	0.05
0	404	20.284380988	0.05
0	405	20.3	0.05
0	407	20.4	0.05
0	409	20.5	0.05
0	411	20.6	0.05
0	413	20.7	0.05
0	415	20.8	0.05
0	416	20.837331757	0.05
0	417	20.9	0.05
0	419	21	0.05
0	420	21.095292982	0.05
0	421	21.1	0.05
0	423	21.2	0.05
0	425	21.3	0.05
0	427	21.4	0.05
0	429	21.5	0.05
0	431	21.6	0.05
0	432	21.613885267	0.05
0	433	21.7	0.05
0	435	21.8	0.05
0	436	21.872469307	0.05
0	437	21.9	0.05
0	439	22	0.05
0	441	22.1	0.05
0	443	22.2	0.05
0	445	22.3	0.05
0	446	22.357969648	0.05
0	447	22.4	0.05
0	449	22.5	0.05
0	451	22.6	0.05
0	452	22.647327976	0.05
0	453	22.7	0.05
0	455	22.8	0.05
0	457	22.9	0.05
0	458	22.914563323	0.05
0	459	23	0.05
0	461	23.08057828677	0.05
0	462	23.1	0.0495
0	462	23.1	0.0495
0	464	23.2	0.0495
0	465	23.213578528	0.0495
0	466	23.3	0.0495
0	468	23.4	0.0495
0	470	23.5	0.0495
0	472	23.6	0.0495
0	474	23.7	0.0495
0	475	23.705945278	0.0495
0	476	23.8	0.0495
0	478	23.9	0.0495
0	480	24	0.0495
0	482	24.1	0.0495
0	483	24.125019733	0.0495
0	484	24.2	0.0495
0	486	24.3	0.0495
0	488	24.4	0.0495
0	489	24.407265487	0.0495
0	490	24.5	0.0495
0	492	24.6	0.0495
0	494	24.7	0.0495
0	496	24.8	0.0495
0	497	24.814478323	0.0495
0	498	24.9	0.0495
0	500	25	0.0495
0	502	25.1	0.0495
0	504	25.2	0.0495
0	505	25.234224034	0.0495
0	506	25.3	0.0495
0	508	25.4	0.0495
0	510	25.5	0.0495
0	512	25.6	0.0495
0	514	25.7	0.0495
0	515	25.765545322	0.0495
0	516	25.8	0.049005
0	516	25.8	0.049005
0	518	25.9	0.049005
0	520	26	0.049005
0	522	26.1	0.049005
0	524	26.2	0.049005
0	526	26.3	0.049005
0	527	26.392481809	0.049005
0	528	26.4	0.049005
0	530	26.5	0.049005
0	532	26.6	0.049005
0	534	26.7	0.049005
0	536	26.8	0.049005
0	538	26.9	0.049005
0	539	26.923923829	0.049005
0	540	27	0.049005
0	542	27.053907778174	0.049005
0	543	27.1	0.049189368887304
0	545	27.177657778174	0.0495
0	546	27.2	0.049093475198431
0	546	27.2	0.049093475198431
0	548	27.3	0.049493475198431
0	550	27.302657778174	0.05
0	551	27.4	0.05
0	552	27.444435055	0.05
0	553	27.5	0.05
0	555	27.6	0.05
0	557	27.7	0.05
0	559	27.8	0.05
0	561	27.9	0.05
0	563	28	0.05
0	565	28.1	0.05
0	566	28.144934866	0.05
0	567	28.2	0.05
0	569	28.3	0.05
0	571	28.4	0.05
0	573	28.5	0.05
0	575	28.6	0.05
0	577	28.7	0.05
0	578	28.719763492	0.05
0	579	28.8	0.05
0	581	28.9	0.05
0	583	29	0.05
0	585	29.1	0.05
0	587	29.2	0.05
0	589	29.3	0.05
0	591	29.4	0.05
0	593	29.5	0.05
0	594	29.520227173	0.05
0	595	29.6	0.05
0	597	29.7	0.05
0	599	29.8	0.05
0	601	29.9	0.05
0	603	30	0.05
0	605	30.1	0.05
0	607	30.2	0.05
0	608	30.248642476	0.05
0	609	30.3	0.05
0	611	30.4	0.05
0	613	30.5	0.05
0	615	30.518578313751	0.05
0	616	30.6	0.05
0	618	30.7	0.05
0	620	30.8	0.05
0	622	30.9	0.05
0	624	31	0.05
0	625	31.053998059	0.05
0	626	31.1	0.05
0	628	31.2	0.05
0	630	31.3	0.05
0	632	31.4	0.05
0	634	31.5	0.05
0	636	31.6	0.0495
0	636	31.6	0.0495
0	638	31.7	0.0495
0	640	31.8	0.0495
0	641	31.821954085	0.0495
0	642	31.9	0.0495
0	644	32	0.0495
0	646	32.1	0.0495
0	648	32.2	0.0495
0	650	32.3	0.0495
0	652	32.4	0.0495
0	654	32.5	0.0495
0	655	32.542058359	0.0495
0	656	32.6	0.0495
0	658	32.7	0.0495
0	660	32.8	0.0495
0	662	32.9	0.0495
0	664	33	0.0495
0	666	33.1	0.049005
0	666	33.1	0.049005
0	668	33.2	0.049005
0	670	33.3	0.049005
0	671	33.352136785	0.049005
0	672	33.4	0.049005
0	674	33.5	0.049005
0	676	33.6	0.049005
0	678	33.7	0.049005
0	680	33.8	0.049005
0	682	33.9	0.049005
0	683	33.948385534	0.049005
0	684	34	0.049005
0	686	34.1	0.049005
0	688	34.2	0.049005
0	690	34.3	0.049005
0	692	34.4	0.049005
0	693	34.442019901	0.049005
0	694	34.5	0.04851495
0	694	34.5	0.04851495
0	696	34.6	0.04851495
0	698	34.7	0.04851495
0	700	34.8	0.04851495
0	702	34.9	0.04851495
0	703	34.934714482	0.04851495
0	704	35	0.04851495
0	706	35.1	0.04851495
0	708	35.2	0.04851495
0	710	35.3	0.04851495
0	711	35.378334817	0.04851495
0	712	35.4	0.04851495
0	714	35.5	0.04851495
0	716	35.6	0.04851495
0	718	35.7	0.04851495
0	720	35.8	0.04851495
0	722	35.9	0.04851495
0	724	36	0.0480298005
0	724	36	0.0480298005
0	726	36.1	0.0480298005
0	728	36.2	0.0480298005
0	730	36.3	0.0480298005
0	731	36.329035741	0.0480298005
0	732	36.4	0.0480298005
0	734	36.5	0.0480298005
0	736	36.6	0.0480298005
0	738	36.7	0.0480298005
0	740	36.8	0.0480298005
0	742	36.9	0.0480298005
0	744	37	0.0480298005
0	745	37.053697774	0.0480298005
0	746	37.1	0.0480298005
0	748	37.2	0.0480298005
0	750	37.3	0.0480298005
0	752	37.4	0.0480298005
0	754	37.5	0.047549502495
0	754	37.5	0.047549502495
0	756	37.6	0.047549502495
0	757	37.697314903	0.047549502495
0	758	37.7	0.047549502495
0	760	37.8	0.047549502495
0	762	37.9	0.047549502495
0	764	38	0.047549502495
0	766	38.1	0.047549502495
0	768	38.2	0.047549502495
0	770	38.3	0.047549502495
0	772	38.4	0.047549502495
0	773	38.405032978	0.047549502495
0	774	38.5	0.047549502495
0	776	38.6	0.047549502495
0	778	38.7	0.047549502495
0	780	38.8	0.047549502495
0	782	38.9	0.047549502495
0	784	39	0.04707400747005
0	784	39	0.04707400747005
0	785	39.084790942	0.04707400747005
0	786	39.1	0.04707400747005
0	788	39.2	0.04707400747005
0	790	39.3	0.04707400747005
0	792	39.4	0.04707400747005
0	794	39.5	0.04707400747005
0	796	39.6	0.04707400747005
0	797	39.64423312	0.04707400747005
0	798	39.7	0.04707400747005
0	800	39.8	0.04707400747005
0	802	39.9	0.04707400747005
0	804	40	0.04707400747005
0	806	40.1	0.04707400747005
0	808	40.2	0.04707400747005
0	809	40.268295193	0.04707400747005
0	810	40.3	0.04707400747005
0	812	40.4	0.04660326739535
0	812	40.4	0.04660326739535
0	814	40.5	0.04660326739535
0	816	40.6	0.04660326739535
0	818	40.7	0.04660326739535
0	820	40.8	0.04660326739535
0	821	40.812307405	0.04660326739535
0	822	40.9	0.04660326739535
0	824	41	0.04660326739535
0	826	41.1	0.04660326739535
0	828	41.2	0.04660326739535
0	830	41.3	0.04660326739535
0	831	41.343694036	0.04660326739535
0	832	41.4	0.04660326739535
0	834	41.5	0.04660326739535
0	836	41.6	0.04660326739535
0	838	41.7	0.04660326739535
0	840	41.8	0.04660326739535
0	841	41.880064669	0.04660326739535
0	842	41.9	0.04660326739535
0	844	42	0.04660326739535
0	846	42.1	0.04660326739535
0	847	42.157791043	0.04660326739535
0	848	42.2	0.04660326739535
0	850	42.3	0.04660326739535
0	852	42.4	0.04660326739535
0	854	42.5	0.04660326739535
0	856	42.6	0.04660326739535
0	858	42.7	0.04660326739535
0	859	42.746523769	0.04660326739535
0	860	42.8	0.04660326739535
0	862	42.9	0.04660326739535
0	864	43	0.04660326739535
0	866	43.1	0.04660326739535
0	868	43.2	0.04660326739535
0	869	43.289543503	0.04660326739535
0	870	43.3	0.04660326739535
0	872	43.4	0.04660326739535
0	874	43.5	0.04660326739535
0	876	43.6	0.04660326739535
0	878	43.7	0.04660326739535
0	879	43.789315627	0.04660326739535
0	880	43.8	0.04660326739535
0	882	43.9	0.04660326739535
0	884	44	0.04660326739535
0	886	44.1	0.04660326739535
0	888	44.2	0.04660326739535
0	890	44.3	0.04660326739535
0	892	44.4	0.04660326739535
0	894	44.5	0.04660326739535
0	895	44.589233863	0.04660326739535
0	896	44.6	0.04660326739535
0	898	44.7	0.046137234721396
0	898	44.7	0.046137234721396
0	900	44.8	0.046137234721396
0	902	44.9	0.046137234721396
0	904	45	0.046137234721396
0	906	45.1	0.046137234721396
0	908	45.2	0.046137234721396
0	910	45.3	0.046137234721396
0	911	45.394557943	0.046137234721396
0	912	45.4	0.046137234721396
0	914	45.5	0.046137234721396
0	916	45.6	0.046137234721396
0	918	45.7	0.046137234721396
0	920	45.8	0.046137234721396
0	922	45.9	0.046137234721396
0	924	46	0.046137234721396
0	925	46.069663738	0.046137234721396
0	926	46.1	0.046137234721396
0	928	46.2	0.045675862374182
0	928	46.2	0.045675862374182
0	930	46.3	0.045675862374182
0	932	46.4	0.045675862374182
0	934	46.5	0.045675862374182
0	936	46.6	0.045675862374182
0	938	46.7	0.045675862374182
0	939	46.777312732	0.045675862374182
0	940	46.8	0.045675862374182
0	942	46.9	0.045675862374182
0	945	47	0.045675862374182
0	947	47.1	0.045675862374182
0	949	47.2	0.045675862374182
0	951	47.3	0.045675862374182
0	952	47.322109804	0.045675862374182
0	953	47.4	0.045675862374182
0	955	47.5	0.045675862374182
0	957	47.6	0.045675862374182
0	959	47.7	0.045675862374182
0	961	47.8	0.045675862374182
0	962	47.885213677	0.045675862374182
0	963	47.9	0.045675862374182
0	965	48	0.045675862374182
0	967	48.1	0.045675862374182
0	969	48.2	0.045675862374182
0	971	48.3	0.045675862374182
0	973	48.4	0.045675862374182
0	974	48.492155164	0.045675862374182
0	975	48.5	0.045675862374182
0	977	48.6	0.045675862374182
0	979	48.7	0.045675862374182
0	981	48.8	0.045675862374182
0	983	48.9	0.045675862374182
0	985	49	0.045675862374182
0	987	49.1	0.045675862374182
0	988	49.117113889	0.045675862374182
0	989	49.2	0.045675862374182
0	991	49.3	0.045675862374182
0	993	49.4	0.045675862374182
0	995	49.5	0.045675862374182
0	997	49.6	0.045675862374182
0	998	49.663615174	0.045675862374182
0	999	49.7	0.045675862374182
0	1001	49.8	0.045675862374182
0	1003	49.9	0.045675862374182
0	1005	50	0.045675862374182
0	1007	50.1	0.045675862374182
0	1009	50.2	0.045675862374182
0	1011	50.3	0.045675862374182
0	1012	50.386759078	0.045675862374182
0	1013	50.4	0.045675862374182
0	1015	50.5	0.045675862374182
0	1017	50.6	0.045675862374182
0	1020	50.7	0.045675862374182
0	1022	50.8	0.045675862374182
0	1024	50.9	0.045675862374182
0	1026	51	0.045675862374182
0	1028	51.1	0.045675862374182
0	1028	51.148067887	0.045675862374182
0	1030	51.2	0.045675862374182
0	1032	51.3	0.045675862374182
0	1034	51.4	0.045675862374182
0	1036	51.5	0.045675862374182
0	1038	51.6	0.045675862374182
0	1040	51.7	0.045675862374182
0	1040	51.738027295	0.045675862374182
0	1042	51.8	0.045675862374182
0	1044	51.9	0.045675862374182
0	1046	52	0.04521910375044
0	1046	52	0.04521910375044
0	1048	52.1	0.04521910375044
0	1051	52.2	0.04521910375044
0	1054	52.3	0.04521910375044
0	1054	52.318208941	0.04521910375044
0	1056	52.4	0.04521910375044
0	1059	52.5	0.04521910375044
0	1062	52.6	0.04521910375044
0	1064	52.7	0.04521910375044
0	1066	52.8	0.04521910375044
0	1066	52.816400554	0.04521910375044
0	1068	52.9	0.04521910375044
0	1070	53	0.04521910375044
0	1072	53.1	0.04521910375044
0	1074	53.2	0.04521910375044
0	1074	53.223033544	0.044766912712936
0	1074	53.223033544	0.044766912712936
0	1076	53.3	0.044766912712936
0	1078	53.4	0.044766912712936
0	1080	53.5	0.044766912712936
0	1082	53.6	0.044766912712936
0	1084	53.7	0.044766912712936
0	1084	53.717911735	0.044766912712936
0	1086	53.8	0.044766912712936
0	1088	53.9	0.044766912712936
0	1090	54	0.044766912712936
0	1092	54.1	0.044766912712936
0	1092	54.158151967	0.044766912712936
0	1094	54.2	0.044766912712936
0	1096	54.3	0.044766912712936
0	1098	54.4	0.044766912712936
0	1098	54.44519191	0.044766912712936
0	1100	54.5	0.044766912712936
0	1102	54.6	0.044319243585806
0	1102	54.6	0.044319243585806
0	1104	54.7	0.044319243585806
0	1106	54.8	0.044319243585806
0	1108	54.9	0.044319243585806
0	1108	54.908595439	0.044319243585806
0	1110	55	0.044319243585806
0	1112	55.1	0.044319243585806
0	1114	55.2	0.044319243585806
0	1116	55.3	0.044319243585806
0	1117	55.387991554	0.044319243585806
0	1118	55.4	0.044319243585806
0	1120	55.5	0.044319243585806
0	1122	55.6	0.044319243585806
0	1124	55.7	0.044319243585806
0	1126	55.8	0.044319243585806
0	1126	55.832618635	0.044319243585806
0	1128	55.9	0.044319243585806
0	1130	56	0.043876051149948
0	1130	56	0.043876051149948
0	1132	56.1	0.043876051149948
0	1134	56.2	0.043876051149948
0	1136	56.3	0.043876051149948
0	1136	56.364716011	0.043876051149948
0	1138	56.4	0.043876051149948
0	1140	56.5	0.043876051149948
0	1142	56.6	0.043876051149948
0	1144	56.7	0.043876051149948
0	1145	56.769634267061	0.043876051149948
0	1147	56.83702669	0.043876051149948
0	1148	56.869634267061	0.043876051149948
0	1150	56.969634267061	0.043876051149948
0	1152	57.069634267061	0.043876051149948
0	1154	57.169634267061	0.043876051149948
0	1156	57.269634267061	0.043876051149948
0	1157	57.324819931	0.043876051149948
0	1158	57.369634267061	0.043437290638449
0	1158	57.369634267061	0.043437290638449
0	1160	57.469634267061	0.043437290638449
0	1162	57.569634267061	0.043437290638449
0	1164	57.669634267061	0.043437290638449
0	1166	57.769634267061	0.043437290638449
0	1167	57.867864763	0.043437290638449
0	1168	57.869634267061	0.043437290638449
0	1170	57.969634267061	0.043437290638449
0	1172	58.069634267061	0.043437290638449
0	1174	58.169634267061	0.043437290638449
0	1176	58.269634267061	0.043437290638449
0	1178	58.369634267061	0.043437290638449
0	1180	58.469634267061	0.043437290638449
0	1181	58.52862829	0.043437290638449
0	1182	58.569634267061	0.043437290638449
0	1184	58.669634267061	0.043437290638449
0	1186	58.769634267061	0.043437290638449
0	1188	58.869634267061	0.043002917732064
0	1188	58.869634267061	0.043002917732064
0	1190	58.969634267061	0.043002917732064
0	1190	58.974764062	0.043002917732064
0	1192	59.069634267061	0.043002917732064
0	1194	59.169634267061	0.043002917732064
0	1196	59.269634267061	0.043002917732064
0	1198	59.369634267061	0.043002917732064
0	1200	59.469634267061	0.043002917732064
0	1201	59.547434023	0.043002917732064
0	1202	59.569634267061	0.043002917732064
0	1204	59.669634267061	0.043002917732064
0	1206	59.769634267061	0.043002917732064
0	1208	59.869634267061	0.043002917732064
0	1210	59.969634267061	0.043002917732064
0	1212	60.069634267061	0.043002917732064
0	1212	60.070283227	0.043002917732064
0	1214	60.169634267061	0.043002917732064
0	1216	60.269634267061	0.042572888554744
0	1216	60.269634267061	0.042572888554744
0	1218	60.369634267061	0.042572888554744
0	1220	60.469634267061	0.042572888554744
0	1221	60.512002078	0.042572888554744
0	1222	60.569634267061	0.042572888554744
0	1224	60.669634267061	0.042572888554744
0	1226	60.769634267061	0.042572888554744
0	1228	60.869634267061	0.042572888554744
0	1229	60.965276242	0.042572888554744
0	1230	60.969634267061	0.042572888554744
0	1232	61.069634267061	0.042572888554744
0	1234	61.169634267061	0.042572888554744
0	1236	61.269634267061	0.042572888554744
0	1238	61.369634267061	0.042572888554744
0	1239	61.410668002	0.042572888554744
0	1240	61.469634267061	0.042572888554744
0	1242	61.569634267061	0.042572888554744
0	1244	61.669634267061	0.042147159669196
0	1244	61.669634267061	0.042147159669196
0	1246	61.769634267061	0.042147159669196
0	1248	61.869634267061	0.042147159669196
0	1249	61.899450568	0.042147159669196
0	1250	61.969634267061	0.042147159669196
0	1252	62.069634267061	0.042147159669196
0	1254	62.169634267061	0.042147159669196
0	1256	62.269634267061	0.042147159669196
0	1258	62.369634267061	0.042147159669196
0	1258	62.378250565	0.042147159669196
0	1260	62.469634267061	0.042147159669196
0	1262	62.569634267061	0.042147159669196
0	1264	62.669634267061	0.042147159669196
0	1266	62.769634267061	0.042147159669196
0	1268	62.869634267061	0.042147159669196
0	1269	62.906585086	0.042147159669196
0	1270	62.969634267061	0.042147159669196
0	1272	63.069634267061	0.041725688072504
0	1272	63.069634267061	0.041725688072504
0	1274	63.169634267061	0.041725688072504
0	1276	63.269634267061	0.041725688072504
0	1278	63.369634267061	0.041725688072504
0	1279	63.395251867	0.041725688072504
0	1280	63.469634267061	0.041725688072504
0	1282	63.569634267061	0.041725688072504
0	1283	63.644787112	0.041725688072504
0	1284	63.669634267061	0.041725688072504
0	1286	63.769634267061	0.041725688072504
0	1288	63.869634267061	0.041725688072504
0	1290	63.969634267061	0.041725688072504
0	1292	64.069634267061	0.041725688072504
0	1293	64.127430106	0.041725688072504
0	1294	64.169634267061	0.041725688072504
0	1296	64.269634267061	0.041725688072504
0	1298	64.369634267061	0.041725688072504
0	1300	64.469634267061	0.041308431191779
0	1300	64.469634267061	0.041308431191779
0	1302	64.569634267061	0.041308431191779
0	1303	64.597908943	0.041308431191779
0	1304	64.669634267061	0.041308431191779
0	1306	64.769634267061	0.041308431191779
0	1308	64.869634267061	0.041308431191779
0	1310	64.969634267061	0.041308431191779
0	1311	65.051481166	0.041308431191779
0	1312	65.069634267061	0.041308431191779
0	1314	65.169634267061	0.041308431191779
0	1316	65.269634267061	0.041308431191779
0	1318	65.369634267061	0.041308431191779
0	1320	65.469634267061	0.041308431191779
0	1321	65.506535098	0.041308431191779
0	1322	65.569634267061	0.041308431191779
0	1324	65.669634267061	0.041308431191779
0	1326	65.769634267061	0.041308431191779
0	1328	65.869634267061	0.040895346879862
0	1328	65.869634267061	0.040895346879862
0	1330	65.969634267061	0.040895346879862
0	1331	66.052768702	0.040895346879862
0	1332	66.069634267061	0.040895346879862
0	1334	66.169634267061	0.040895346879862
0	1336	66.269634267061	0.040895346879862
0	1338	66.369634267061	0.040895346879862
0	1340	66.469634267061	0.040895346879862
0	1341	66.536704954	0.040895346879862
0	1342	66.569634267061	0.040895346879862
0	1344	66.669634267061	0.040895346879862
0	1346	66.769634267061	0.040895346879862
0	1348	66.869634267061	0.040895346879862
0	1350	66.969634267061	0.040895346879862
0	1351	67.035284197	0.040895346879862
0	1352	67.069634267061	0.040895346879862
0	1354	67.169634267061	0.040895346879862
0	1356	67.269634267061	0.040486393411063
0	1356	67.269634267061	0.040486393411063
0	1358	67.369634267061	0.040486393411063
0	1360	67.469634267061	0.040486393411063
0	1362	67.569634267061	0.040486393411063
0	1363	67.661994214	0.040486393411063
0	1364	67.669634267061	0.040486393411063
0	1366	67.769634267061	0.040486393411063
0	1368	67.869634267061	0.040486393411063
0	1370	67.969634267061	0.040486393411063
0	1372	68.069634267061	0.040486393411063
0	1373	68.141601946	0.040486393411063
0	1374	68.169634267061	0.040486393411063
0	1376	68.269634267061	0.040486393411063
0	1378	68.369634267061	0.040486393411063
0	1380	68.469634267061	0.040486393411063
0	1382	68.569634267061	0.040486393411063
0	1383	68.644648279	0.040486393411063
0	1384	68.669634267061	0.040081529476952
0	1384	68.669634267061	0.040081529476952
0	1386	68.769634267061	0.040081529476952
0	1388	68.869634267061	0.040081529476952
0	1389	68.904936649	0.040081529476952
0	1390	68.969634267061	0.040081529476952
0	1392	69.069634267061	0.040081529476952
0	1394	69.169634267061	0.040081529476952
0	1396	69.269634267061	0.040081529476952
0	1398	69.369634267061	0.040081529476952
0	1399	69.437495467	0.040081529476952
0	1400	69.469634267061	0.040081529476952
0	1402	69.569634267061	0.040081529476952
0	1404	69.669634267061	0.040081529476952
0	1406	69.769634267061	0.040081529476952
0	1408	69.869634267061	0.040081529476952
0	1410	69.969634267061	0.040081529476952
0	1411	70.055893786	0.040081529476952
0	1412	70.069634267061	0.039680714182183
0	1412	70.069634267061	0.039680714182183
0	1414	70.169634267061	0.039680714182183
0	1416	70.269634267061	0.039680714182183
0	1418	70.369634267061	0.039680714182183
0	1420	70.469634267061	0.039680714182183
0	1421	70.486967971	0.039680714182183
0	1422	70.569634267061	0.039680714182183
0	1424	70.669634267061	0.039680714182183
0	1426	70.769634267061	0.039680714182183
0	1428	70.869634267061	0.039680714182183
0	1430	70.969634267061	0.039680714182183
0	1431	71.032430419	0.039680714182183
0	1432	71.069634267061	0.039680714182183
0	1434	71.169634267061	0.039680714182183
0	1436	71.269634267061	0.039680714182183
0	1438	71.369634267061	0.039680714182183
0	1439	71.450920096	0.039680714182183
0	1440	71.469634267061	0.039283907040361
0	1440	71.469634267061	0.039283907040361
0	1442	71.569634267061	0.039283907040361
0	1444	71.669634267061	0.039283907040361
0	1446	71.769634267061	0.039283907040361
0	1448	71.869634267061	0.039283907040361
0	1449	71.89510165	0.039283907040361
0	1450	71.969634267061	0.039283907040361
0	1452	72.069634267061	0.039283907040361
0	1454	72.169634267061	0.039283907040361
0	1456	72.269634267061	0.039283907040361
0	1458	72.369634267061	0.039283907040361
0	1459	72.423531169	0.039283907040361
0	1460	72.469634267061	0.039283907040361
0	1462	72.569634267061	0.039283907040361
0	1464	72.669634267061	0.039283907040361
0	1466	72.769634267061	0.039283907040361
0	1468	72.869634267061	0.039283907040361
0	1469	72.91011304	0.039283907040361
0	1470	72.969634267061	0.039283907040361
0	1472	73.069634267061	0.039283907040361
0	1474	73.169634267061	0.039283907040361
0	1476	73.269634267061	0.039283907040361
0	1477	73.354623898	0.039283907040361
0	1478	73.369634267061	0.039283907040361
0	1480	73.469634267061	0.039283907040361
0	1482	73.569634267061	0.039283907040361
0	1484	73.669634267061	0.039283907040361
0	1486	73.769634267061	0.039283907040361
0	1487	73.859995939	0.039283907040361
0	1488	73.869634267061	0.039283907040361
0	1490	73.969634267061	0.039283907040361
0	1492	74.069634267061	0.039283907040361
0	1494	74.169634267061	0.039283907040361
0	1496	74.269634267061	0.039283907040361
0	1496	74.275036213	0.038891067969957
0	1496	74.275036213	0.038891067969957
0	1498	74.369634267061	0.038891067969957
0	1500	74.469634267061	0.038891067969957
0	1502	74.569634267061	0.038891067969957
0	1504	74.669634267061	0.038891067969957
0	1504	74.677869289	0.038891067969957
0	1506	74.769634267061	0.038891067969957
0	1508	74.869634267061	0.038891067969957
0	1510	74.969634267061	0.038891067969957
0	1512	75.069634267061	0.038891067969957
0	1514	75.169634267061	0.038891067969957
0	1516	75.269634267061	0.038891067969957
0	1516	75.272662771	0.038891067969957
0	1518	75.369634267061	0.038891067969957
0	1520	75.469634267061	0.038891067969957
0	1522	75.569634267061	0.038891067969957
0	1524	75.669634267061	0.038891067969957
0	1525	75.720913195	0.038891067969957
0	1526	75.769634267061	0.038891067969957
0	1528	75.869634267061	0.038891067969957
0	1530	75.969634267061	0.038891067969957
0	1532	76.069634267061	0.038891067969957
0	1533	76.163047867	0.038891067969957
0	1534	76.169634267061	0.038891067969957
0	1536	76.269634267061	0.038891067969957
0	1538	76.369634267061	0.038891067969957
0	1540	76.469634267061	0.038891067969957
0	1542	76.569634267061	0.038891067969957
0	1542	76.581467761	0.038891067969957
0	1544	76.669634267061	0.038891067969957
0	1546	76.769634267061	0.038891067969957
0	1547	76.842444715	0.038891067969957
0	1548	76.869634267061	0.038891067969957
0	1550	76.969634267061	0.038891067969957
0	1552	77.069634267061	0.038502157290258
0	1552	77.069634267061	0.038502157290258
0	1554	77.169634267061	0.038502157290258
0	1556	77.269634267061	0.038502157290258
0	1557	77.323701736	0.038502157290258
0	1558	77.369634267061	0.038502157290258
0	1560	77.469634267061	0.038502157290258
0	1562	77.569634267061	0.038502157290258
0	1564	77.669634267061	0.038502157290258
0	1566	77.769634267061	0.038502157290258
0	1567	77.802659548	0.038502157290258
0	1568	77.869634267061	0.038502157290258
0	1570	77.969634267061	0.038502157290258
0	1572	78.069634267061	0.038502157290258
0	1574	78.169634267061	0.038502157290258
0	1576	78.269634267061	0.038502157290258
0	1577	78.291106582	0.038502157290258
0	1578	78.369634267061	0.038502157290258
0	1580	78.469634267061	0.038117135717355
0	1580	78.469634267061	0.038117135717355
0	1582	78.569634267061	0.038117135717355
0	1582	78.57023401	0.038117135717355
0	1584	78.669634267061	0.038117135717355
0	1586	78.769634267061	0.038117135717355
0	1588	78.869634267061	0.038117135717355
0	1590	78.969634267061	0.038117135717355
0	1591	79.030874368	0.038117135717355
0	1592	79.069634267061	0.038117135717355
0	1594	79.169634267061	0.038117135717355
0	1596	79.269634267061	0.038117135717355
0	1598	79.369634267061	0.038117135717355
0	1600	79.469634267061	0.038117135717355
0	1601	79.561711339	0.038117135717355
0	1602	79.569634267061	0.038117135717355
0	1604	79.669634267061	0.038117135717355
0	1606	79.769634267061	0.038117135717355
0	1608	79.869634267061	0.037735964360182
0	1608	79.869634267061	0.037735964360182
0	1610	79.969634267061	0.037735964360182
0	1611	80.009346388	0.037735964360182
0	1612	80.069634267061	0.037735964360182
0	1614	80.169634267061	0.037735964360182
0	1616	80.269634267061	0.037735964360182
0	1618	80.369634267061	0.037735964360182
0	1619	80.451044554	0.037735964360182
0	1620	80.469634267061	0.037735964360182
0	1622	80.569634267061	0.037735964360182
0	1624	80.669634267061	0.037735964360182
0	1625	80.700410296	0.037735964360182
0	1626	80.769634267061	0.037735964360182
0	1628	80.869634267061	0.037735964360182
0	1630	80.969634267061	0.037735964360182
0	1632	81.069634267061	0.037735964360182
0	1633	81.157942261	0.037735964360182
0	1634	81.169634267061	0.03735860471658
0	1634	81.169634267061	0.03735860471658
0	1636	81.269634267061	0.03735860471658
0	1638	81.369634267061	0.03735860471658
0	1640	81.469634267061	0.03735860471658
0	1642	81.569634267061	0.03735860471658
0	1644	81.669634267061	0.03735860471658
0	1646	81.769634267061	0.03735860471658
0	1647	81.797351566	0.03735860471658
0	1648	81.869634267061	0.03735860471658
0	1650	81.969634267061	0.03735860471658
0	1652	82.069634267061	0.03735860471658
0	1654	82.169634267061	0.03735860471658
0	1656	82.269634267061	0.03735860471658
0	1657	82.344058531	0.03735860471658
0	1658	82.369634267061	0.03735860471658
0	1660	82.469634267061	0.03735860471658
0	1662	82.569634267061	0.03735860471658
0	1664	82.669634267061	0.036985018669414
0	1664	82.669634267061	0.036985018669414
0	1666	82.769634267061	0.036985018669414
0	1667	82.858938871	0.036985018669414
0	1668	82.869634267061	0.036985018669414
0	1670	82.969634267061	0.036985018669414
0	1672	83.069634267061	0.036985018669414
0	1674	83.169634267061	0.036985018669414
0	1676	83.269634267061	0.036985018669414
0	1678	83.369634267061	0.036985018669414
0	1680	83.469634267061	0.036985018669414
0	1681	83.542007002	0.036985018669414
0	1682	83.569634267061	0.036985018669414
0	1684	83.669634267061	0.036985018669414
0	1686	83.769634267061	0.036985018669414
0	1688	83.869634267061	0.036985018669414
0	1690	83.969634267061	0.036985018669414
0	1691	84.005728045	0.036985018669414
0	1692	84.069634267061	0.03661516848272
0	1692	84.069634267061	0.03661516848272
0	1694	84.169634267061	0.03661516848272
0	1696	84.269634267061	0.03661516848272
0	1698	84.369634267061	0.03661516848272
0	1700	84.469634267061	0.03661516848272
0	1702	84.569634267061	0.03661516848272
0	1703	84.618509203	0.03661516848272
0	1704	84.669634267061	0.03661516848272
0	1706	84.769634267061	0.03661516848272
0	1708	84.869634267061	0.03661516848272
0	1710	84.969634267061	0.03661516848272
0	1712	85.069634267061	0.03661516848272
0	1713	85.16495953	0.03661516848272
0	1714	85.169634267061	0.03661516848272
0	1716	85.269634267061	0.03661516848272
0	1718	85.369634267061	0.03661516848272
0	1720	85.469634267061	0.03661516848272
0	1722	85.569634267061	0.036249016797893
0	1722	85.569634267061	0.036249016797893
0	1724	85.669634267061	0.036249016797893
0	1726	85.769634267061	0.036249016797893
0	1727	85.843653694	0.036249016797893
0	1728	85.869634267061	0.036249016797893
0	1730	85.969634267061	0.036249016797893
0	1732	86.069634267061	0.036249016797893
0	1734	86.169634267061	0.036249016797893
0	1736	86.269634267061	0.036249016797893
0	1737	86.312118757	0.036249016797893
0	1738	86.369634267061	0.036249016797893
0	1740	86.469634267061	0.036249016797893
0	1742	86.569634267061	0.036249016797893
0	1744	86.669634267061	0.036249016797893
0	1746	86.769634267061	0.036249016797893
0	1747	86.791276744	0.036249016797893
0	1748	86.869634267061	0.036249016797893
0	1750	86.969634267061	0.035886526629914
0	1750	86.969634267061	0.035886526629914
0	1752	87.069634267061	0.035886526629914
0	1752	87.077217004	0.035886526629914
0	1754	87.169634267061	0.035886526629914
0	1756	87.269634267061	0.035886526629914
0	1758	87.369634267061	0.035886526629914
0	1760	87.469634267061	0.035886526629914
0	1762	87.569634267061	0.035886526629914
0	1764	87.669634267061	0.035886526629914
0	1765	87.695918275	0.035886526629914
0	1766	87.769634267061	0.035886526629914
0	1768	87.869634267061	0.035886526629914
0	1770	87.969634267061	0.035886526629914
0	1772	88.069634267061	0.035886526629914
0	1774	88.169634267061	0.035886526629914
0	1776	88.269634267061	0.035886526629914
0	1777	88.294361359	0.035886526629914
0	1778	88.369634267061	0.035527661363615
0	1778	88.369634267061	0.035527661363615
0	1780	88.469634267061	0.035527661363615
0	1782	88.569634267061	0.035527661363615
0	1784	88.669634267061	0.035527661363615
0	1786	88.769634267061	0.035527661363615
0	1787	88.831142083	0.035527661363615
0	1788	88.869634267061	0.035527661363615
0	1790	88.969634267061	0.035527661363615
0	1792	89.069634267061	0.035527661363615
0	1794	89.169634267061	0.035527661363615
0	1796	89.269634267061	0.035527661363615
0	1797	89.294717641	0.035527661363615
0	1798	89.369634267061	0.035527661363615
0	1800	89.469634267061	0.035527661363615
0	1802	89.569634267061	0.035527661363615
0	1804	89.669634267061	0.035527661363615
0	1805	89.760458494	0.035527661363615
0	1806	89.769634267061	0.035172384749978
0	1806	89.769634267061	0.035172384749978
0	1808	89.869634267061	0.035172384749978
0	1810	89.969634267061	0.035172384749978
0	1812	90.069634267061	0.035172384749978
0	1814	90.169634267061	0.035172384749978
0	1816	90.269634267061	0.035172384749978
0	1818	90.369634267061	0.035172384749978
0	1819	90.402693217	0.035172384749978
0	1820	90.469634267061	0.035172384749978
0	1822	90.569634267061	0.035172384749978
0	1824	90.669634267061	0.035172384749978
0	1826	90.769634267061	0.035172384749978
0	1828	90.869634267061	0.035172384749978
0	1828	90.882379186	0.035172384749978
0	1830	90.969634267061	0.035172384749978
0	1832	91.069634267061	0.035172384749978
0	1834	91.169634267061	0.035172384749978
0	1836	91.269634267061	0.034820660902479
0	1836	91.269634267061	0.034820660902479
0	1837	91.342274962	0.034820660902479
0	1838	91.369634267061	0.034820660902479
0	1840	91.469634267061	0.034820660902479
0	1842	91.569634267061	0.034820660902479
0	1844	91.669634267061	0.034820660902479
0	1846	91.769634267061	0.034820660902479
0	1847	91.867258573	0.034820660902479
0	1848	91.869634267061	0.034820660902479
0	1850	91.969634267061	0.034820660902479
0	1852	92.069634267061	0.034820660902479
0	1854	92.169634267061	0.034820660902479
0	1856	92.269634267061	0.034820660902479
0	1858	92.369634267061	0.034820660902479
0	1860	92.469634267061	0.034820660902479
0	1861	92.495428327	0.034820660902479
0	1862	92.569634267061	0.034820660902479
0	1864	92.669634267061	0.034472454293454
0	1864	92.669634267061	0.034472454293454
0	1866	92.769634267061	0.034472454293454
0	1868	92.869634267061	0.034472454293454
0	1870	92.969634267061	0.034472454293454
0	1872	93.069634267061	0.034472454293454
0	1874	93.169634267061	0.034472454293454
0	1874	93.172396507	0.034472454293454
0	1876	93.269634267061	0.034472454293454
0	1878	93.369634267061	0.034472454293454
0	1880	93.469634267061	0.034472454293454
0	1882	93.569634267061	0.034472454293454
0	1883	93.625102132	0.034472454293454
0	1884	93.669634267061	0.034472454293454
0	1886	93.769634267061	0.034472454293454
0	1888	93.869634267061	0.034472454293454
0	1890	93.969634267061	0.034472454293454
0	1892	94.069634267061	0.034472454293454
0	1893	94.115801035	0.034472454293454
0	1894	94.169634267061	0.034472454293454
0	1896	94.269634267061	0.034472454293454
0	1898	94.369634267061	0.034472454293454
0	1900	94.469634267061	0.034472454293454
0	1902	94.569634267061	0.034472454293454
0	1902	94.582233961	0.034472454293454
0	1904	94.669634267061	0.034472454293454
0	1906	94.769634267061	0.034472454293454
0	1908	94.869634267061	0.034472454293454
0	1910	94.969634267061	0.034472454293454
0	1912	95.069634267061	0.034472454293454
0	1913	95.115072607	0.034472454293454
0	1914	95.169634267061	0.034472454293454
0	1916	95.269634267061	0.034472454293454
0	1918	95.369634267061	0.034472454293454
0	1919	95.400314416	0.034472454293454
0	1920	95.469634267061	0.034127729750519
0	1920	95.469634267061	0.034127729750519
0	1922	95.569634267061	0.034127729750519
0	1923	95.666594227	0.034127729750519
0	1924	95.669634267061	0.034127729750519
0	1926	95.769634267061	0.034127729750519
0	1928	95.869634267061	0.034127729750519
0	1930	95.969634267061	0.034127729750519
0	1932	96.069634267061	0.034127729750519
0	1934	96.169634267061	0.034127729750519
0	1935	96.204190429	0.034127729750519
0	1936	96.269634267061	0.034127729750519
0	1939	96.369634267061	0.034127729750519
0	1941	96.469634267061	0.034127729750519
0	1943	96.569634267061	0.034127729750519
0	1944	96.66826879	0.034127729750519
0	1945	96.669634267061	0.034127729750519
0	1947	96.748284869505	0.034127729750519
0	1948	96.769634267061	0.033870996067336
0	1948	96.769634267061	0.033870996067336
0	1949	96.841352431875	0.0345
0	1951	96.869634267061	0.034613127340744
0	1953	96.966352431875	0.035
0	1954	96.969634267061	0.035013127340744
0	1956	97.069634267061	0.035413127340744
0	1957	97.091352431875	0.0355
0	1959	97.169634267061	0.035813127340744
0	1960	97.216352431875	0.036
0	1960	97.231039612	0.0360587487205
0	1962	97.269634267061	0.036213127340744
0	1963	97.341352431875	0.0365
0	1965	97.369634267061	0.036613127340744
0	1967	97.466352431875	0.037
0	1968	97.469634267061	0.037013127340744
0	1970	97.569634267061	0.037413127340744
0	1971	97.591352431875	0.0375
0	1973	97.669634267061	0.037813127340744
0	1974	97.716352431875	0.038
0	1976	97.769634267061	0.038213127340744
0	1977	97.841352431875	0.0385
0	1979	97.869634267061	0.038613127340744
0	1979	97.931303263	0.0388598033245
0	1981	97.966352431875	0.039
0	1982	97.969634267061	0.039013127340744
0	1984	98.069634267061	0.039413127340744
0	1985	98.091352431875	0.0395
0	1987	98.169634267061	0.039813127340744
0	1988	98.216352431875	0.04
0	1990	98.269634267061	0.040213127340744
0	1991	98.341352431875	0.0405
0	1993	98.369634267061	0.040613127340744
0	1993	98.419007644	0.0408106208485
0	1995	98.466352431875	0.041
0	1996	98.469634267061	0.041013127340744
0	1998	98.569634267061	0.041413127340744
0	1999	98.591352431875	0.0415
0	2001	98.669634267061	0.041813127340744
0	2002	98.716352431875	0.042
0	2004	98.769634267061	0.042213127340744
0	2005	98.841352431875	0.0425
0	2007	98.869634267061	0.042613127340744
0	2007	98.888219803	0.0426874694845
0	2009	98.966352431875	0.043
0	2010	98.969634267061	0.043013127340744
0	2012	99.069634267061	0.043413127340744
0	2013	99.091352431875	0.0435
0	2015	99.169634267061	0.043813127340744
0	2016	99.216352431875	0.044
0	2018	99.269634267061	0.044213127340744
0	2018	99.338070769	0.0444868733485
0	2019	99.341352431875	0.0445
0	2021	99.369634267061	0.044613127340744
0	2023	99.466352431875	0.045
0	2024	99.469634267061	0.045013127340744
0	2026	99.569634267061	0.045413127340744
0	2027	99.591352431875	0.0455
0	2027	99.630017614	0.0456546607285
0	2029	99.669634267061	0.045813127340744
0	2030	99.716352431875	0.046
0	2032	99.769634267061	0.046213127340744
0	2033	99.841352431875	0.0465
0	2035	99.869634267061	0.046613127340744
0	2035	99.911545933	0.0467807740045
0	2037	99.966352431875	0.047
0	2038	99.969634267061	0.047013127340744
0	2040	100.069634267061	0.047413127340744
0	2041	100.091352431875	0.0475
0	2043	100.169634267061	0.047813127340744
0	2044	100.216352431875	0.048
0	2046	100.269634267061	0.048213127340744
0	2047	100.341352431875	0.0485
0	2048	100.34964244	0.0485331600325
0	2049	100.369634267061	0.048613127340744
0	2051	100.466352431875	0.049
0	2052	100.469634267061	0.049013127340744
0	2054	100.569634267061	0.049413127340744
0	2055	100.591352431875	0.0495
0	2057	100.669634267061	0.049813127340744
0	2058	100.716352431875	0.05
0	2060	100.769634267061	0.05
0	2060	100.826698492	0.05
0	2062	100.869634267061	0.05
0	2064	100.969634267061	0.05
0	2066	101.069634267061	0.0495
0	2066	101.069634267061	0.0495
0	2068	101.169634267061	0.0499
0	2069	101.248964305	0.05
0	2070	101.269634267061	0.05
0	2072	101.369634267061	0.05
0	2074	101.469634267061	0.05
0	2076	101.569634267061	0.05
0	2078	101.669634267061	0.05
0	2079	101.734504546	0.05
0	2080	101.769634267061	0.05
0	2082	101.869634267061	0.05
0	2084	101.969634267061	0.05
0	2086	102.069634267061	0.05
0	2087	102.165773446	0.05
0	2088	102.169634267061	0.05
0	2090	102.269634267061	0.05
0	2092	102.369634267061	0.05
0	2094	102.469634267061	0.0495
0	2094	102.469634267061	0.0495
0	2096	102.569634267061	0.0499
0	2098	102.669634267061	0.05
0	2098	102.698452123	0.05
0	2100	102.769634267061	0.05
0	2102	102.869634267061	0.05
0	2104	102.969634267061	0.05
0	2106	103.069634267061	0.05
0	2108	103.169634267061	0.05
0	2109	103.240014802	0.05
0	2110	103.269634267061	0.05
0	2112	103.369634267061	0.05
0	2114	103.469634267061	0.05
0	2116	103.569634267061	0.05
0	2118	103.669634267061	0.05
0	2120	103.769634267061	0.05
0	2121	103.852103737	0.05
0	2122	103.869634267061	0.0495
0	2122	103.869634267061	0.0495
0	2124	103.969634267061	0.0499
0	2126	104.069634267061	0.05
0	2128	104.169634267061	0.05
0	2130	104.269551736704	0.05
0	2131	104.315945836	0.05
0	2132	104.369551736704	0.05
0	2134	104.469551736704	0.05
0	2136	104.569551736704	0.05
0	2138	104.669551736704	0.05
0	2140	104.769551736704	0.05
0	2142	104.869551736704	0.05
0	2142	104.884125511	0.05
0	2144	104.969551736704	0.05
0	2146	105.069551736704	0.05
0	2148	105.169551736704	0.05
0	2150	105.269551736704	0.05
0	2151	105.31703221	0.05
0	2152	105.369551736704	0.05
0	2154	105.469551736704	0.05
0	2156	105.569551736704	0.05
0	2158	105.669551736704	0.05
0	2160	105.769551736704	0.05
0	2160	105.783056716	0.05
0	2162	105.869551736704	0.05
0	2164	105.969551736704	0.05
0	2166	106.069551736704	0.05
0	2168	106.169551736704	0.05
0	2170	106.269551736704	0.05
0	2171	106.365698302	0.05
0	2172	106.369551736704	0.05
0	2174	106.469551736704	0.05
0	2176	106.569551736704	0.05
0	2178	106.669551736704	0.05
0	2180	106.769551736704	0.0495
0	2180	106.769551736704	0.0495
0	2182	106.869551736704	0.0499
0	2184	106.969551736704	0.05
0	2184	106.996452448	0.05
0	2186	107.069551736704	0.05
0	2188	107.169551736704	0.05
0	2189	107.25740449	0.05
0	2190	107.269551736704	0.05
0	2192	107.369551736704	0.05
0	2194	107.469551736704	0.05
0	2196	107.569551736704	0.05
0	2198	107.669551736704	0.05
0	2200	107.769551736704	0.05
0	2201	107.800933546	0.05
0	2202	107.869551736704	0.05
0	2204	107.969551736704	0.05
0	2206	108.069551736704	0.05
0	2208	108.169551736704	0.0495
0	2208	108.169551736704	0.0495
0	2210	108.269551736704	0.0499
0	2211	108.323005696	0.05
0	2212	108.369551736704	0.05
0	2214	108.469551736704	0.05
0	2216	108.569551736704	0.05
0	2218	108.669551736704	0.05
0	2219	108.76574338	0.05
0	2220	108.769551736704	0.05
0	2222	108.869551736704	0.05
0	2224	108.969551736704	0.05
0	2226	109.069551736704	0.05
0	2228	109.169551736704	0.05
0	2229	109.217337118	0.05
0	2230	109.269551736704	0.05
0	2232	109.369551736704	0.05
0	2234	109.469551736704	0.05
0	2236	109.569551736704	0.0495
0	2236	109.569551736704	0.0495
0	2238	109.669551736704	0.0499
0	2239	109.756655893	0.05
0	2240	109.769551736704	0.05
0	2242	109.869551736704	0.05
0	2244	109.969551736704	0.05
0	2246	110.069551736704	0.05
0	2248	110.169551736704	0.05
0	2250	110.269551736704	0.05
0	2251	110.348948116	0.05
0	2252	110.369551736704	0.05
0	2254	110.469551736704	0.05
0	2256	110.569551736704	0.05
0	2258	110.669551736704	0.05
0	2260	110.769551736704	0.05
0	2261	110.837636236	0.05
0	2262	110.869551736704	0.05
0	2264	110.969551736704	0.0495
0	2264	110.969551736704	0.0495
0	2266	111.069551736704	0.0499
0	2268	111.169551736704	0.05
0	2270	111.269551736704	0.05
0	2272	111.369551736704	0.05
0	2273	111.451272547	0.05
0	2274	111.469551736704	0.05
0	2276	111.569551736704	0.05
0	2278	111.669551736704	0.05
0	2280	111.769551736704	0.05
0	2282	111.78497921793	0.05
0	2284	111.88497921793	0.05
0	2286	111.98497921793	0.05
0	2287	112.078151356	0.05
0	2288	112.08497921793	0.05
0	2290	112.18497921793	0.05
0	2292	112.28497921793	0.05
0	2294	112.38497921793	0.0495
0	2294	112.38497921793	0.0495
0	2296	112.48497921793	0.0499
0	2298	112.58497921793	0.05
0	2300	112.68497921793	0.05
0	2300	112.74021676	0.05
0	2302	112.78497921793	0.05
0	2304	112.88497921793	0.05
0	2306	112.98497921793	0.05
0	2308	113.08497921793	0.05
0	2310	113.18497921793	0.05
0	2312	113.28497921793	0.05
0	2312	113.320747102	0.05
0	2314	113.38497921793	0.05
0	2316	113.48497921793	0.05
0	2318	113.58497921793	0.05
0	2320	113.68497921793	0.05
0	2322	113.78497921793	0.05
0	2324	113.88497921793	0.0495
0	2324	113.88497921793	0.0495
0	2326	113.98497921793	0.0499
0	2326	114.00960664	0.04999850968828
0	2328	114.08497921793	0.05
0	2330	114.18497921793	0.05
0	2332	114.28497921793	0.05
0	2334	114.38497921793	0.05
0	2336	114.48497921793	0.05
0	2337	114.544572748	0.05
0	2338	114.58497921793	0.05
0	2340	114.68497921793	0.05
0	2342	114.78497921793	0.05
0	2344	114.88497921793	0.05
0	2346	114.98497921793	0.05
0	2348	115.08497921793	0.05
0	2349	115.18154515	0.05
0	2350	115.18497921793	0.05
0	2352	115.28497921793	0.0495
0	2352	115.28497921793	0.0495
0	2354	115.38497921793	0.0499
0	2356	115.48497921793	0.05
0	2358	115.58497921793	0.05
0	2359	115.680088054	0.05
0	2360	115.68497921793	0.05
0	2362	115.78497921793	0.05
0	2364	115.88497921793	0.05
0	2366	115.98497921793	0.05
0	2368	116.08497921793	0.05
0	2370	116.18497921793	0.05
0	2371	116.196424468	0.05
0	2372	116.28497921793	0.05
0	2374	116.38497921793	0.05
0	2376	116.48497921793	0.05
0	2378	116.58497921793	0.05
0	2380	116.68497921793	0.05
0	2381	116.771515762	0.05
0	2382	116.78497921793	0.05
0	2384	116.88497921793	0.05
0	2386	116.98497921793	0.05
0	2388	117.08497921793	0.05
0	2390	117.18497921793	0.05
0	2391	117.230720614	0.05
0	2392	117.28497921793	0.05
0	2395	117.38497921793	0.05
0	2398	117.48497921793	0.05
0	2401	117.58497921793	0.05
0	2403	117.66097059268	0.05
0	2405	117.760758121	0.05
0	2406	117.76097059268	0.05
0	2409	117.86097059268	0.05
0	2412	117.96097059268	0.05
0	2415	118.06097059268	0.05
0	2417	118.16097059268	0.05
0	2419	118.223506423	0.05
0	2420	118.26097059268	0.05
0	2423	118.36097059268	0.05
0	2425	118.46097059268	0.05
0	2427	118.56097059268	0.05
0	2429	118.66097059268	0.05
0	2429	118.669031899	0.05
0	2431	118.76097059268	0.05
0	2433	118.86097059268	0.05
0	2434	118.914797467	0.05
0	2435	118.96097059268	0.05
0	2437	119.06097059268	0.05
0	2439	119.16097059268	0.05
0	2440	119.207612167	0.05
0	2441	119.26097059268	0.05
0	2443	119.36097059268	0.05
0	2445	119.46097059268	0.05
0	2447	119.56097059268	0.05
0	2449	119.66097059268	0.05
0	2450	119.710032796	0.05
0	2451	119.76097059268	0.05
0	2453	119.86097059268	0.05
0	2455	119.96097059268	0.05
0	2457	120.06097059268	0.05
0	2459	120.16097059268	0.05
0	2460	120.24627808	0.05
0	2461	120.26097059268	0.05
0	2463	120.36097059268	0.05
0	2465	120.46097059268	0.05
0	2467	120.56097059268	0.05
0	2469	120.66097059268	0.05
0	2471	120.76097059268	0.05
0	2472	120.851369665	0.05
0	2473	120.86097059268	0.05
0	2475	120.96097059268	0.05
0	2477	121.06097059268	0.05
0	2479	121.16097059268	0.05
0	2481	121.26097059268	0.05
0	2483	121.36097059268	0.05
0	2485	121.46097059268	0.05
0	2487	121.56097059268	0.05
0	2487	121.568092696	0.05
0	2489	121.66097059268	0.05
0	2491	121.76097059268	0.05
0	2493	121.86097059268	0.05
0	2495	121.96097059268	0.05
0	2497	122.06097059268	0.05
0	2498	122.124226324	0.05
0	2499	122.16097059268	0.05
0	2501	122.26097059268	0.05
0	2503	122.36097059268	0.05
0	2505	122.46097059268	0.05
0	2507	122.56097059268	0.05
0	2509	122.66097059268	0.05
0	2511	122.76097059268	0.05
0	2511	122.764198957	0.05
0	2513	122.86097059268	0.05
0	2515	122.96097059268	0.05
0	2517	123.06097059268	0.05
0	2519	123.16097059268	0.05
0	2520	123.206019946	0.05
0	2521	123.26097059268	0.05
0	2523	123.36097059268	0.05
0	2525	123.46097059268	0.05
0	2527	123.56097059268	0.05
0	2529	123.66097059268	0.05
0	2529	123.667614484	0.05
0	2531	123.76097059268	0.05
0	2533	123.86097059268	0.05
0	2534	123.898783969	0.05
0	2535	123.96097059268	0.05
0	2537	124.06097059268	0.05
0	2539	124.16097059268	0.05
0	2541	124.26097059268	0.05
0	2543	124.36097059268	0.05
0	2544	124.431333913	0.05
0	2545	124.46097059268	0.05
0	2547	124.56097059268	0.05
0	2549	124.66097059268	0.05
0	2551	124.684689911804	0.05
0	2552	124.76097059268	0.0495
0	2552	124.76097059268	0.0495
0	2554	124.86097059268	0.0495
0	2555	124.933329436	0.0495
0	2556	124.96097059268	0.0495
0	2558	125.06097059268	0.0495
0	2560	125.16097059268	0.0495
0	2562	125.26097059268	0.0495
0	2563	125.261655416022	0.0495
0	2565	125.361655416022	0.0495
0	2567	125.461655416022	0.0495
0	2568	125.516597464	0.0495
0	2569	125.561655416022	0.0495
0	2571	125.661655416022	0.0495
0	2573	125.761655416022	0.0495
0	2574	125.806328731	0.0495
0	2575	125.861655416022	0.0495
0	2577	125.961655416022	0.0495
0	2579	126.061655416022	0.0495
0	2581	126.161655416022	0.0495
0	2583	126.261655416022	0.0495
0	2585	126.361655416022	0.0495
0	2585	126.374037844	0.0495
0	2587	126.461655416022	0.0495
0	2589	126.561655416022	0.0495
0	2591	126.661655416022	0.0495
0	2593	126.761655416022	0.0495
0	2594	126.820727176	0.0495
0	2595	126.861655416022	0.0495
0	2597	126.961655416022	0.0495
0	2599	127.061655416022	0.0495
0	2601	127.161655416022	0.0495
0	2602	127.197745351	0.0495
0	2603	127.261655416022	0.0495
0	2605	127.361655416022	0.0495
0	2607	127.461655416022	0.0495
0	2607	127.471775374	0.0495
0	2609	127.561655416022	0.0495
0	2611	127.661655416022	0.0495
0	2613	127.761655416022	0.0495
0	2615	127.861655416022	0.0495
0	2616	127.948264462	0.0495
0	2617	127.961655416022	0.0495
0	2619	128.061655416022	0.0495
0	2621	128.161655416022	0.0495
0	2622	128.242509451	0.0495
0	2623	128.261655416022	0.0495
0	2625	128.361655416022	0.0495
0	2627	128.409862864363	0.0495
0	2628	128.461655416022	0.049707170206636
0	2630	128.534862864363	0.05
0	2631	128.561655416022	0.05
0	2633	128.661655416022	0.05
0	2634	128.724098323	0.0495
0	2634	128.724098323	0.0495
0	2635	128.761655416022	0.049650228372088
0	2637	128.861655416022	0.05
0	2639	128.961655416022	0.05
0	2641	129.061655416022	0.05
0	2643	129.161655416022	0.05
0	2644	129.186938527	0.05
0	2645	129.261655416022	0.05
0	2647	129.361655416022	0.05
0	2649	129.461655416022	0.05
0	2651	129.561655416022	0.05
0	2653	129.661655416022	0.05
0	2655	129.761655416022	0.05
0	2655	129.764724088	0.05
0	2657	129.861655416022	0.05
0	2659	129.961655416022	0.05
0	2661	130.061655416022	0.05
0	2663	130.161655416022	0.05
0	2665	130.261655416022	0.05
0	2667	130.361655416022	0.05
0	2667	130.376403913	0.05
0	2669	130.461655416022	0.05
0	2671	130.561655416022	0.05
0	2673	130.661655416022	0.05
0	2674	130.670472671811	0.05
0	2676	130.770472671811	0.05
0	2678	130.870472671811	0.05
0	2678	130.871592049	0.05
0	2680	130.970472671811	0.05
0	2682	131.070472671811	0.05
0	2684	131.170472671811	0.05
0	2686	131.270472671811	0.05
0	2688	131.370472671811	0.05
0	2690	131.470472671811	0.05
0	2692	131.570472671811	0.05
0	2694	131.670472671811	0.0495
0	2694	131.670472671811	0.0495
0	2695	131.686293109	0.049563281748756
0	2696	131.770472671811	0.0499
0	2698	131.870472671811	0.05
0	2700	131.970472671811	0.05
0	2702	132.070472671811	0.05
0	2704	132.170472671811	0.05
0	2704	132.173991622	0.05
0	2706	132.270472671811	0.05
0	2708	132.370472671811	0.05
0	2710	132.470472671811	0.05
0	2712	132.570472671811	0.05
0	2714	132.670472671811	0.05
0	2715	132.75162157	0.05
0	2716	132.770472671811	0.05
0	2718	132.870472671811	0.05
0	2720	132.970472671811	0.05
0	2722	133.070472671811	0.0495
0	2722	133.070472671811	0.0495
0	2724	133.170472671811	0.0499
0	2726	133.270472671811	0.05
0	2727	133.327359376	0.05
0	2728	133.370472671811	0.05
0	2730	133.470472671811	0.05
0	2732	133.570472671811	0.05
0	2734	133.670472671811	0.05
0	2736	133.770472671811	0.05
0	2738	133.870472671811	0.05
0	2739	133.890818983	0.05
0	2740	133.970472671811	0.05
0	2742	134.070472671811	0.05
0	2744	134.170472671811	0.05
0	2746	134.270472671811	0.05
0	2748	134.370472671811	0.05
0	2750	134.470472671811	0.05
0	2751	134.492174083	0.05
0	2752	134.570472671811	0.05
0	2754	134.670472671811	0.05
0	2756	134.770472671811	0.05
0	2758	134.870472671811	0.05
0	2760	134.970472671811	0.05
0	2762	135.070472671811	0.05
0	2763	135.136764133	0.05
0	2764	135.170472671811	0.05
0	2766	135.270472671811	0.05
0	2768	135.370472671811	0.05
0	2770	135.470472671811	0.05
0	2772	135.570472671811	0.05
0	2774	135.670472671811	0.05
0	2775	135.735164347	0.05
0	2776	135.770472671811	0.05
0	2778	135.870472671811	0.05
0	2779	135.963692005	0.05
0	2780	135.970472671811	0.05
0	2782	136.070472671811	0.05
0	2784	136.170472671811	0.05
0	2786	136.270472671811	0.05
0	2788	136.370472671811	0.05
0	2790	136.470472671811	0.05
0	2791	136.493704414	0.05
0	2792	136.570472671811	0.05
0	2794	136.670472671811	0.05
0	2796	136.770472671811	0.05
0	2798	136.870472671811	0.05
0	2800	136.970472671811	0.05
0	2801	137.02554658	0.05
0	2802	137.070472671811	0.05
0	2804	137.170472671811	0.05
0	2806	137.270472671811	0.05
0	2808	137.370472671811	0.0495
0	2808	137.370472671811	0.0495
0	2810	137.382260979877	0.049547153232264
0	2812	137.482260979877	0.049947153232264
0	2814	137.582260979877	0.05
0	2816	137.682260979877	0.05
0	2816	137.70403588	0.05
0	2818	137.782260979877	0.05
0	2820	137.882260979877	0.05
0	2822	137.982260979877	0.05
0	2824	138.082260979877	0.05
0	2826	138.182260979877	0.05
0	2828	138.282260979877	0.05
0	2830	138.382260979877	0.05
0	2830	138.426479599	0.05
0	2832	138.482260979877	0.05
0	2834	138.582260979877	0.05
0	2836	138.682260979877	0.05
0	2838	138.782260979877	0.0495
0	2838	138.782260979877	0.0495
0	2840	138.882260979877	0.0499
0	2842	138.982260979877	0.05
0	2842	138.994495168	0.05
0	2844	139.082260979877	0.05
0	2846	139.182260979877	0.05
0	2848	139.282260979877	0.05
0	2850	139.382260979877	0.05
0	2850	139.475482024	0.05
0	2852	139.482260979877	0.05
0	2854	139.582260979877	0.05
0	2856	139.682260979877	0.05
0	2858	139.782260979877	0.05
0	2860	139.882260979877	0.05
0	2860	139.976577787	0.05
0	2862	139.982260979877	0.05
0	2864	140.082260979877	0.05
0	2866	140.182260979877	0.0495
0	2866	140.182260979877	0.0495
0	2868	140.282260979877	0.0499
0	2870	140.382260979877	0.05
0	2872	140.482260979877	0.05
0	2872	140.491580569	0.05
0	2874	140.582260979877	0.05
0	2876	140.682260979877	0.05
0	2878	140.782260979877	0.05
0	2880	140.882260979877	0.05
0	2880	140.941601923	0.05
0	2882	140.982260979877	0.05
0	2884	141.082260979877	0.05
0	2886	141.182260979877	0.05
0	2889	141.282260979877	0.05
0	2891	141.382260979877	0.05
0	2891	141.387823462	0.05
0	2893	141.482260979877	0.05
0	2895	141.582260979877	0.05
0	2897	141.682260979877	0.05
0	2899	141.782260979877	0.05
0	2899	141.820266337	0.05
0	2901	141.882260979877	0.05
0	2903	141.982260979877	0.05
0	2905	142.082260979877	0.05
0	2907	142.182260979877	0.05
0	2909	142.282260979877	0.05
0	2909	142.368801166	0.05
0	2911	142.382260979877	0.05
0	2913	142.482260979877	0.05
0	2915	142.582260979877	0.05
0	2917	142.682260979877	0.05
0	2919	142.782260979877	0.05
0	2919	142.800731935	0.05
0	2921	142.882260979877	0.05
0	2923	142.982260979877	0.05
0	2925	143.082260979877	0.05
0	2927	143.182260979877	0.05
0	2929	143.282260979877	0.05
0	2929	143.308188628	0.05
0	2931	143.382260979877	0.05
0	2933	143.482260979877	0.05
0	2935	143.582260979877	0.05
0	2937	143.682260979877	0.05
0	2939	143.782260979877	0.05
0	2939	143.854699789	0.05
0	2941	143.882260979877	0.05
0	2943	143.982260979877	0.05
0	2946	144.082260979877	0.05
0	2949	144.182260979877	0.05
0	2951	144.282260979877	0.05
0	2952	144.324445168	0.05
0	2954	144.382260979877	0.05
0	2957	144.482260979877	0.05
0	2959	144.582260979877	0.05
0	2959	144.599558278	0.05
0	2961	144.682260979877	0.05
0	2963	144.782260979877	0.05
0	2963	144.864962605	0.05
0	2965	144.882260979877	0.05
0	2967	144.982260979877	0.05
0	2969	145.082260979877	0.05
0	2971	145.182260979877	0.05
0	2973	145.282260979877	0.05
0	2973	145.34346085	0.05
0	2975	145.382260979877	0.05
0	2977	145.482260979877	0.05
0	2979	145.582260979877	0.05
0	2981	145.682260979877	0.05
0	2983	145.782260979877	0.05
0	2983	145.85596378	0.05
0	2985	145.882260979877	0.05
0	2987	145.982260979877	0.05
0	2989	146.082260979877	0.05
0	2991	146.182260979877	0.05
0	2991	146.27511844	0.05
0	2993	146.282260979877	0.05
0	2995	146.382260979877	0.05
0	2997	146.482260979877	0.05
0	2999	146.582260979877	0.05
0	3001	146.682260979877	0.05
0	3001	146.724211534	0.05
0	3003	146.782260979877	0.05
0	3005	146.882260979877	0.05
0	3007	146.982260979877	0.05
0	3009	147.082260979877	0.05
0	3011	147.182260979877	0.05
0	3011	147.19211857	0.05
0	3011	147.277292694582	0.05
1	0	0	0.004
1	461	23.08057828677	0
1	542	27.053907778174	0.004
1	615	30.518578313751	0
1	1947	96.748284869505	0.004
1	2551	124.684689911804	0
1	2627	128.409862864363	0.004
2	0	0	0.05
2	0	0.1	0.05
2	2	0.155720605	0.05
2	4	0.2	0.05
2	6	0.3	0.05
2	8	0.4	0.05
2	10	0.5	0.05
2	10	0.589066576	0.05
2	12	0.6	0.05
2	14	0.7	0.05
2	16	0.8	0.05
2	18	0.9	0.05
2	20	1	0.05
2	22	1.1	0.05
2	24	1.2	0.05
2	26	1.3	0.05
2	26	1.385992075	0.05
2	28	1.4	0.05
2	30	1.5	0.05
2	32	1.6	0.05
2	34	1.7	0.05
2	36	1.8	0.05
2	36	1.810368712	0.05
2	38	1.9	0.05
2	40	2	0.05
2	42	2.1	0.05
2	44	2.2	0.05
2	44	2.240539588	0.05
2	46	2.3	0.05
2	48	2.4	0.05
2	50	2.5	0.05
2	50	2.521955887	0.05
2	52	2.6	0.05
2	54	2.7	0.0495
2	54	2.7	0.0495
2	56	2.8	0.0499
2	58	2.9	0.05
2	58	2.981226811	0.05
2	60	3	0.05
2	62	3.1	0.05
2	62	3.176934658	0.05
2	64	3.2	0.05
2	66	3.3	0.05
2	66	3.385859743	0.05
2	68	3.4	0.05
2	70	3.5	0.05
2	72	3.6	0.05
2	74	3.7	0.05
2	74	3.795612604	0.05
2	76	3.8	0.05
2	78	3.9	0.05
2	80	4	0.0495
2	80	4	0.0495
2	80	4.053683743	0.049714734972
2	82	4.1	0.0499
2	84	4.2	0.05
2	86	4.3	0.05
2	88	4.4	0.05
2	90	4.5	0.05
2	90	4.511779867	0.05
2	92	4.6	0.05
2	94	4.7	0.05
2	96	4.8	0.05
2	98	4.9	0.05
2	98	4.904153905	0.05
2	100	5	0.05
2	102	5.1	0.05
2	104	5.2	0.05
2	106	5.3	0.05
2	106	5.337829363	0.05
2	108	5.4	0.05
2	110	5.5	0.05
2	110	5.548823467	0.05
2	112	5.6	0.05
2	114	5.7	0.05
2	116	5.8	0.05
2	116	5.828629504	0.05
2	118	5.9	0.05
2	120	6	0.05
2	120	6.073233184	0.05
2	122	6.1	0.05
2	124	6.2	0.05
2	126	6.3	0.05
2	126	6.346422529	0.05
2	128	6.4	0.05
2	130	6.5	0.05
2	132	6.6	0.0495
2	132	6.6	0.0495
2	134	6.7	0.0499
2	134	6.749672734	0.05
2	136	6.8	0.05
2	138	6.9	0.05
2	138	6.986917033	0.05
2	140	7	0.05
2	142	7.1	0.05
2	144	7.2	0.05
2	144	7.279210165	0.05
2	146	7.3	0.05
2	148	7.4	0.05
2	148	7.49350132	0.05
2	150	7.5	0.05
2	152	7.6	0.05
2	154	7.7	0.05
2	156	7.8	0.05
2	158	7.9	0.0495
2	158	7.9	0.0495
2	158	7.931175778	0.049624703112
2	160	8	0.0499
2	162	8.1	0.05
2	164	8.2	0.05
2	164	8.212561261	0.05
2	166	8.3	0.05
2	168	8.4	0.05
2	170	8.5	0.05
2	172	8.6	0.05
2	172	8.650931503	0.05
2	174	8.7	0.05
2	176	8.8	0.05
2	178	8.9	0.05
2	180	9	0.05
2	180	9.076547233	0.05
2	182	9.1	0.05
2	184	9.2	0.0495
2	184	9.2	0.0495
2	186	9.3	0.0499
2	188	9.4	0.05
2	190	9.5	0.05
2	190	9.534424084	0.05
2	192	9.6	0.05
2	194	9.7	0.05
2	196	9.8	0.05
2	196	9.814818286	0.05
2	198	9.9	0.05
2	200	10	0.05
2	202	10.1	0.05
2	204	10.2	0.05
2	204	10.292825905	0.05
2	206	10.3	0.05
2	208	10.4	0.05
2	210	10.5	0.05
2	212	10.6	0.0495
2	212	10.6	0.0495
2	214	10.7	0.0499
2	216	10.8	0.05
2	216	10.838312671	0.05
2	218	10.9	0.05
2	220	11	0.05
2	222	11.1	0.05
2	224	11.2	0.05
2	226	11.3	0.05
2	226	11.312646517	0.05
2	228	11.4	0.05
2	230	11.5	0.05
2	232	11.6	0.05
2	234	11.7	0.05
2	234	11.774655385	0.05
2	236	11.8	0.05
2	238	11.9	0.05
2	240	12	0.0495
2	240	12	0.0495
2	242	12.1	0.0499
2	244	12.2	0.05
2	244	12.23636356	0.05
2	246	12.3	0.05
2	248	12.4	0.05
2	250	12.5	0.05
2	252	12.6	0.05
2	252	12.669088633	0.05
2	254	12.7	0.05
2	256	12.8	0.05
2	258	12.9	0.05
2	260	13	0.05
2	260	13.092028693	0.05
2	262	13.1	0.05
2	264	13.2	0.05
2	266	13.3	0.05
2	266	13.377631804	0.05
2	268	13.4	0.05
2	270	13.5	0.05
2	272	13.6	0.05
2	274	13.7	0.05
2	276	13.8	0.05
2	278	13.9	0.05
2	278	13.921385641	0.05
2	280	14	0.05
2	282	14.1	0.05
2	284	14.2	0.05
2	286	14.3	0.05
2	288	14.4	0.05
2	290	14.5	0.05
2	290	14.512010035	0.05
2	292	14.6	0.05
2	294	14.7	0.05
2	296	14.8	0.0495
2	296	14.8	0.0495
2	298	14.9	0.0499
2	300	15	0.05
2	300	15.023936437	0.05
2	302	15.1	0.05
2	304	15.2	0.05
2	306	15.3	0.05
2	308	15.4	0.05
2	308	15.451532401	0.05
2	310	15.5	0.05
2	312	15.6	0.05
2	314	15.7	0.05
2	316	15.8	0.05
2	318	15.9	0.05
2	318	15.927433345	0.05
2	320	16	0.05
2	322	16.1	0.05
2	324	16.2	0.0495
2	324	16.2	0.0495
2	326	16.3	0.0499
2	326	16.383553636	0.05
2	328	16.4	0.05
2	330	16.5	0.05
2	332	16.6	0.05
2	334	16.7	0.05
2	336	16.8	0.05
2	338	16.9	0.05
2	340	17	0.05
2	340	17.006297068	0.05
2	342	17.1	0.05
2	344	17.2	0.05
2	346	17.3	0.05
2	348	17.4	0.05
2	350	17.5	0.05
2	350	17.525879368	0.05
2	352	17.6	0.0495
2	352	17.6	0.0495
2	354	17.7	0.0499
2	356	17.8	0.05
2	358	17.9	0.05
2	358	17.998622722	0.05
2	360	18	0.05
2	362	18.1	0.05
2	364	18.2	0.05
2	366	18.3	0.05
2	368	18.4	0.05
2	368	18.447873025	0.05
2	370	18.5	0.05
2	372	18.6	0.05
2	374	18.7	0.05
2	376	18.8	0.05
2	378	18.9	0.05
2	378	18.91082764	0.05
2	380	19	0.0495
2	380	19	0.0495
2	382	19.1	0.0499
2	384	19.2	0.05
2	386	19.3	0.05
2	386	19.348233487	0.05
2	388	19.4	0.05
2	390	19.5	0.05
2	392	19.6	0.05
2	394	19.7	0.05
2	396	19.8	0.05
2	396	19.886545102	0.05
2	398	19.9	0.05
2	400	20	0.05
2	402	20.1	0.05
2	404	20.2	0.05
2	404	20.284380988	0.05
2	406	20.3	0.05
2	408	20.4	0.0495
2	408	20.4	0.0495
2	410	20.5	0.0499
2	412	20.6	0.05
2	414	20.7	0.05
2	416	20.8	0.05
2	416	20.837331757	0.05
2	418	20.9	0.05
2	420	21	0.05
2	420	21.095292982	0.05
2	422	21.1	0.05
2	424	21.2	0.05
2	426	21.3	0.05
2	428	21.4	0.05
2	430	21.5	0.05
2	432	21.6	0.05
2	432	21.613885267	0.05
2	434	21.7	0.05
2	436	21.8	0.0495
2	436	21.8	0.0495
2	436	21.872469307	0.049789877228
2	438	21.9	0.0499
2	440	22	0.05
2	442	22.1	0.05
2	444	22.2	0.05
2	446	22.3	0.05
2	446	22.357969648	0.05
2	448	22.4	0.05
2	450	22.5	0.05
2	452	22.6	0.05
2	452	22.647327976	0.05
2	454	22.7	0.05
2	456	22.8	0.05
2	458	22.9	0.05
2	458	22.914563323	0.05
2	460	23	0.05
2	463	23.1	0.05
2	465	23.2	0.05
2	465	23.213578528	0.05
2	467	23.3	0.05
2	469	23.4	0.05
2	471	23.5	0.05
2	473	23.6	0.05
2	475	23.7	0.05
2	475	23.705945278	0.05
2	477	23.8	0.05
2	479	23.9	0.05
2	481	24	0.05
2	483	24.1	0.05
2	483	24.125019733	0.05
2	485	24.2	0.05
2	487	24.3	0.05
2	489	24.4	0.05
2	489	24.407265487	0.0495
2	489	24.407265487	0.0495
2	491	24.5	0.049870938052
2	493	24.6	0.05
2	495	24.7	0.05
2	497	24.8	0.05
2	497	24.814478323	0.05
2	499	24.9	0.05
2	501	25	0.05
2	503	25.1	0.05
2	505	25.2	0.05
2	505	25.234224034	0.05
2	507	25.3	0.05
2	509	25.4	0.05
2	511	25.5	0.05
2	513	25.6	0.05
2	515	25.7	0.05
2	515	25.765545322	0.05
2	517	25.8	0.05
2	519	25.9	0.05
2	521	26	0.05
2	523	26.1	0.05
2	525	26.2	0.05
2	527	26.3	0.05
2	527	26.392481809	0.05
2	529	26.4	0.05
2	531	26.5	0.05
2	533	26.6	0.05
2	535	26.7	0.05
2	537	26.8	0.05
2	539	26.9	0.05
2	539	26.923923829	0.05
2	541	27	0.05
2	544	27.1	0.05
2	547	27.2	0.05
2	549	27.3	0.05
2	552	27.4	0.05
2	552	27.444435055	0.05
2	554	27.5	0.05
2	556	27.6	0.05
2	558	27.7	0.05
2	560	27.8	0.05
2	562	27.9	0.05
2	564	28	0.05
2	566	28.1	0.05
2	566	28.144934866	0.05
2	568	28.2	0.05
2	570	28.3	0.05
2	572	28.4	0.05
2	574	28.5	0.05
2	576	28.6	0.0495
2	576	28.6	0.0495
2	578	28.7	0.0499
2	578	28.719763492	0.049979053968
2	580	28.8	0.05
2	582	28.9	0.05
2	584	29	0.05
2	586	29.1	0.05
2	588	29.2	0.05
2	590	29.3	0.05
2	592	29.4	0.05
2	594	29.5	0.05
2	594	29.520227173	0.05
2	596	29.6	0.05
2	598	29.7	0.05
2	600	29.8	0.05
2	602	29.9	0.05
2	604	30	0.05
2	606	30.1	0.0495
2	606	30.1	0.0495
2	608	30.2	0.0499
2	608	30.248642476	0.05
2	610	30.3	0.05
2	612	30.4	0.05
2	614	30.5	0.05
2	617	30.6	0.05
2	619	30.7	0.05
2	621	30.8	0.05
2	623	30.9	0.05
2	625	31	0.05
2	625	31.053998059	0.05
2	627	31.1	0.05
2	629	31.2	0.05
2	631	31.3	0.05
2	633	31.4	0.05
2	635	31.5	0.05
2	637	31.6	0.05
2	639	31.7	0.05
2	641	31.8	0.05
2	641	31.821954085	0.05
2	643	31.9	0.05
2	645	32	0.05
2	647	32.1	0.05
2	649	32.2	0.05
2	651	32.3	0.05
2	653	32.4	0.05
2	655	32.5	0.05
2	655	32.542058359	0.05
2	657	32.6	0.05
2	659	32.7	0.05
2	661	32.8	0.05
2	663	32.9	0.05
2	665	33	0.05
2	667	33.1	0.05
2	669	33.2	0.05
2	671	33.3	0.05
2	671	33.352136785	0.05
2	673	33.4	0.05
2	675	33.5	0.05
2	677	33.6	0.05
2	679	33.7	0.05
2	681	33.8	0.05
2	683	33.9	0.05
2	683	33.948385534	0.05
2	685	34	0.05
2	687	34.1	0.05
2	689	34.2	0.05
2	691	34.3	0.05
2	693	34.4	0.05
2	693	34.442019901	0.05
2	695	34.5	0.05
2	697	34.6	0.05
2	699	34.7	0.05
2	701	34.8	0.05
2	703	34.9	0.05
2	703	34.934714482	0.05
2	705	35	0.05
2	707	35.1	0.05
2	709	35.2	0.05
2	711	35.3	0.05
2	711	35.378334817	0.05
2	713	35.4	0.05
2	715	35.5	0.05
2	717	35.6	0.05
2	719	35.7	0.05
2	721	35.8	0.05
2	723	35.9	0.05
2	725	36	0.05
2	727	36.1	0.05
2	729	36.2	0.05
2	731	36.3	0.05
2	731	36.329035741	0.05
2	733	36.4	0.05
2	735	36.5	0.05
2	737	36.6	0.05
2	739	36.7	0.05
2	741	36.8	0.05
2	743	36.9	0.05
2	745	37	0.05
2	745	37.053697774	0.05
2	747	37.1	0.05
2	749	37.2	0.05
2	751	37.3	0.05
2	753	37.4	0.05
2	755	37.5	0.05
2	757	37.6	0.05
2	757	37.697314903	0.05
2	759	37.7	0.05
2	761	37.8	0.05
2	763	37.9	0.05
2	765	38	0.05
2	767	38.1	0.05
2	769	38.2	0.05
2	771	38.3	0.05
2	773	38.4	0.05
2	773	38.405032978	0.05
2	775	38.5	0.05
2	777	38.6	0.05
2	779	38.7	0.05
2	781	38.8	0.05
2	783	38.9	0.05
2	785	39	0.05
2	785	39.084790942	0.05
2	787	39.1	0.05
2	789	39.2	0.05
2	791	39.3	0.05
2	793	39.4	0.05
2	795	39.5	0.05
2	797	39.6	0.05
2	797	39.64423312	0.05
2	799	39.7	0.05
2	801	39.8	0.05
2	803	39.9	0.05
2	805	40	0.05
2	807	40.1	0.05
2	809	40.2	0.05
2	809	40.268295193	0.05
2	811	40.3	0.05
2	813	40.4	0.05
2	815	40.5	0.05
2	817	40.6	0.05
2	819	40.7	0.05
2	821	40.8	0.05
2	821	40.812307405	0.05
2	823	40.9	0.05
2	825	41	0.05
2	827	41.1	0.05
2	829	41.2	0.05
2	831	41.3	0.05
2	831	41.343694036	0.05
2	833	41.4	0.05
2	835	41.5	0.05
2	837	41.6	0.05
2	839	41.7	0.05
2	841	41.8	0.05
2	841	41.880064669	0.0495
2	841	41.880064669	0.0495
2	843	41.9	0.049579741324
2	845	42	0.049979741324
2	847	42.1	0.05
2	847	42.157791043	0.05
2	849	42.2	0.05
2	851	42.3	0.05
2	853	42.4	0.05
2	855	42.5	0.05
2	857	42.6	0.05
2	859	42.7	0.05
2	859	42.746523769	0.05
2	861	42.8	0.05
2	863	42.9	0.05
2	865	43	0.05
2	867	43.1	0.05
2	869	43.2	0.05
2	869	43.289543503	0.0495
2	869	43.289543503	0.0495
2	871	43.3	0.049541825988
2	873	43.4	0.049941825988
2	875	43.5	0.05
2	877	43.6	0.05
2	879	43.7	0.05
2	879	43.789315627	0.05
2	881	43.8	0.05
2	883	43.9	0.05
2	885	44	0.05
2	887	44.1	0.05
2	889	44.2	0.05
2	891	44.3	0.05
2	893	44.4	0.05
2	895	44.5	0.05
2	895	44.589233863	0.05
2	897	44.6	0.05
2	899	44.7	0.05
2	901	44.8	0.05
2	903	44.9	0.05
2	905	45	0.05
2	907	45.1	0.05
2	909	45.2	0.05
2	911	45.3	0.05
2	911	45.394557943	0.05
2	913	45.4	0.05
2	915	45.5	0.05
2	917	45.6	0.05
2	919	45.7	0.05
2	921	45.8	0.05
2	923	45.9	0.05
2	925	46	0.05
2	925	46.069663738	0.05
2	927	46.1	0.05
2	929	46.2	0.05
2	931	46.3	0.05
2	933	46.4	0.05
2	935	46.5	0.05
2	937	46.6	0.05
2	939	46.7	0.05
2	939	46.777312732	0.05
2	941	46.8	0.05
2	943	46.9	0.05
2	944	46.974101355068	0.05
2	946	47	0.05
2	948	47.1	0.05
2	950	47.2	0.05
2	952	47.3	0.05
2	952	47.322109804	0.05
2	954	47.4	0.05
2	956	47.5	0.05
2	958	47.6	0.0495
2	958	47.6	0.0495
2	960	47.7	0.0495
2	962	47.8	0.0495
2	962	47.885213677	0.0495
2	964	47.9	0.0495
2	966	48	0.0495
2	968	48.1	0.0495
2	970	48.2	0.0495
2	972	48.3	0.0495
2	974	48.4	0.0495
2	974	48.492155164	0.0495
2	976	48.5	0.0495
2	978	48.6	0.0495
2	980	48.7	0.0495
2	982	48.8	0.0495
2	984	48.9	0.0495
2	986	49	0.0495
2	988	49.1	0.049005
2	988	49.1	0.049005
2	988	49.117113889	0.049005
2	990	49.2	0.049005
2	992	49.3	0.049005
2	994	49.4	0.049005
2	996	49.5	0.049005
2	998	49.6	0.049005
2	998	49.663615174	0.049005
2	1000	49.7	0.049005
2	1002	49.8	0.049005
2	1004	49.9	0.049005
2	1006	50	0.049005
2	1008	50.1	0.049005
2	1010	50.2	0.049005
2	1012	50.3	0.049005
2	1012	50.386759078	0.049005
2	1014	50.4	0.049005
2	1016	50.5	0.04851495
2	1016	50.5	0.04851495
2	1018	50.6	0.04851495
2	1019	50.684302222663	0.04851495
2	1021	50.784302222663	0.04851495
2	1023	50.884302222663	0.04851495
2	1025	50.984302222663	0.04851495
2	1027	51.084302222663	0.04851495
2	1028	51.148067887	0.04851495
2	1029	51.184302222663	0.04851495
2	1031	51.284302222663	0.04851495
2	1033	51.384302222663	0.04851495
2	1035	51.484302222663	0.04851495
2	1037	51.584302222663	0.04851495
2	1039	51.684302222663	0.04851495
2	1040	51.738027295	0.04851495
2	1041	51.784302222663	0.04851495
2	1043	51.884302222663	0.04851495
2	1045	51.984302222663	0.04851495
2	1047	52.084302222663	0.04851495
2	1049	52.166683510363	0.04851495
2	1050	52.184302222663	0.0485854248492
2	1052	52.284302222663	0.0489854248492
2	1053	52.287946010363	0.049
2	1054	52.318208941	0.049121051722548
2	1055	52.384302222663	0.0493854248492
2	1057	52.412946010363	0.0495
2	1058	52.484302222663	0.0497854248492
2	1060	52.537946010363	0.05
2	1061	52.584302222663	0.05
2	1063	52.684302222663	0.05
2	1065	52.784302222663	0.05
2	1066	52.816400554	0.05
2	1067	52.884302222663	0.05
2	1069	52.984302222663	0.05
2	1071	53.084302222663	0.05
2	1073	53.184302222663	0.05
2	1074	53.223033544	0.05
2	1075	53.284302222663	0.05
2	1077	53.384302222663	0.05
2	1079	53.484302222663	0.05
2	1081	53.584302222663	0.05
2	1083	53.684302222663	0.05
2	1084	53.717911735	0.05
2	1085	53.784302222663	0.05
2	1087	53.884302222663	0.05
2	1089	53.984302222663	0.05
2	1091	54.084302222663	0.05
2	1092	54.158151967	0.05
2	1093	54.184302222663	0.05
2	1095	54.284302222663	0.05
2	1097	54.384302222663	0.05
2	1098	54.44519191	0.05
2	1099	54.484302222663	0.05
2	1101	54.584302222663	0.05
2	1103	54.684302222663	0.05
2	1105	54.784302222663	0.05
2	1107	54.884302222663	0.05
2	1108	54.908595439	0.05
2	1109	54.984302222663	0.05
2	1111	55.084302222663	0.05
2	1113	55.184302222663	0.05
2	1115	55.284302222663	0.05
2	1117	55.384302222663	0.05
2	1117	55.387991554	0.05
2	1119	55.484302222663	0.05
2	1121	55.584302222663	0.05
2	1123	55.684302222663	0.05
2	1125	55.784302222663	0.05
2	1126	55.832618635	0.05
2	1127	55.884302222663	0.05
2	1129	55.984302222663	0.05
2	1131	56.084302222663	0.05
2	1133	56.184302222663	0.05
2	1135	56.284302222663	0.05
2	1136	56.364716011	0.05
2	1137	56.384302222663	0.05
2	1139	56.484302222663	0.05
2	1141	56.584302222663	0.05
2	1143	56.684302222663	0.05
2	1146	56.784302222663	0.05
2	1147	56.795584847502	0.05
2	1147	56.83702669	0.05
2	1149	56.884302222663	0.05
2	1151	56.984302222663	0.05
2	1153	57.084302222663	0.05
2	1155	57.184302222663	0.05
2	1157	57.284302222663	0.05
2	1157	57.324819931	0.05
2	1159	57.384302222663	0.05
2	1161	57.484302222663	0.05
2	1163	57.584302222663	0.05
2	1165	57.684302222663	0.05
2	1167	57.784302222663	0.05
2	1167	57.867864763	0.05
2	1169	57.884302222663	0.05
2	1171	57.984302222663	0.05
2	1173	58.084302222663	0.05
2	1175	58.184302222663	0.05
2	1177	58.284302222663	0.05
2	1179	58.384302222663	0.05
2	1181	58.484302222663	0.05
2	1181	58.52862829	0.05
2	1183	58.584302222663	0.05
2	1185	58.684302222663	0.05
2	1187	58.784302222663	0.05
2	1189	58.884302222663	0.05
2	1190	58.974764062	0.05
2	1191	58.984302222663	0.05
2	1193	59.084302222663	0.05
2	1195	59.184302222663	0.05
2	1197	59.284302222663	0.05
2	1199	59.384302222663	0.05
2	1201	59.484302222663	0.05
2	1201	59.547434023	0.05
2	1203	59.584302222663	0.05
2	1205	59.684302222663	0.05
2	1207	59.784302222663	0.05
2	1209	59.884302222663	0.05
2	1211	59.984302222663	0.05
2	1212	60.070283227	0.05
2	1213	60.084302222663	0.05
2	1215	60.184302222663	0.05
2	1217	60.284302222663	0.05
2	1219	60.384302222663	0.05
2	1221	60.484302222663	0.05
2	1221	60.512002078	0.05
2	1223	60.584302222663	0.05
2	1225	60.684302222663	0.05
2	1227	60.784302222663	0.05
2	1229	60.884302222663	0.05
2	1229	60.965276242	0.05
2	1231	60.984302222663	0.05
2	1233	61.084302222663	0.05
2	1235	61.184302222663	0.05
2	1237	61.284302222663	0.05
2	1239	61.384302222663	0.05
2	1239	61.410668002	0.05
2	1241	61.484302222663	0.05
2	1243	61.584302222663	0.05
2	1245	61.684302222663	0.05
2	1247	61.784302222663	0.05
2	1249	61.884302222663	0.05
2	1249	61.899450568	0.05
2	1251	61.984302222663	0.05
2	1253	62.084302222663	0.05
2	1255	62.184302222663	0.05
2	1257	62.284302222663	0.05
2	1258	62.378250565	0.05
2	1259	62.384302222663	0.05
2	1261	62.484302222663	0.05
2	1263	62.584302222663	0.05
2	1265	62.684302222663	0.05
2	1267	62.784302222663	0.05
2	1269	62.884302222663	0.05
2	1269	62.906585086	0.05
2	1271	62.984302222663	0.05
2	1273	63.084302222663	0.05
2	1275	63.184302222663	0.05
2	1277	63.284302222663	0.05
2	1279	63.384302222663	0.05
2	1279	63.395251867	0.05
2	1281	63.484302222663	0.05
2	1283	63.584302222663	0.05
2	1283	63.644787112	0.05
2	1285	63.684302222663	0.05
2	1287	63.784302222663	0.05
2	1289	63.884302222663	0.05
2	1291	63.984302222663	0.05
2	1293	64.084302222663	0.05
2	1293	64.127430106	0.05
2	1295	64.184302222663	0.05
2	1297	64.284302222663	0.05
2	1299	64.384302222663	0.05
2	1301	64.484302222663	0.05
2	1303	64.584302222663	0.05
2	1303	64.597908943	0.05
2	1305	64.684302222663	0.05
2	1307	64.784302222663	0.05
2	1309	64.884302222663	0.05
2	1311	64.984302222663	0.05
2	1311	65.051481166	0.05
2	1313	65.084302222663	0.05
2	1315	65.184302222663	0.05
2	1317	65.284302222663	0.05
2	1319	65.384302222663	0.05
2	1321	65.484302222663	0.05
2	1321	65.506535098	0.05
2	1323	65.584302222663	0.05
2	1325	65.684302222663	0.05
2	1327	65.784302222663	0.05
2	1329	65.884302222663	0.05
2	1331	65.984302222663	0.05
2	1331	66.052768702	0.05
2	1333	66.084302222663	0.05
2	1335	66.184302222663	0.05
2	1337	66.284302222663	0.05
2	1339	66.384302222663	0.05
2	1341	66.484302222663	0.05
2	1341	66.536704954	0.05
2	1343	66.584302222663	0.05
2	1345	66.684302222663	0.05
2	1347	66.784302222663	0.05
2	1349	66.884302222663	0.05
2	1351	66.984302222663	0.05
2	1351	67.035284197	0.05
2	1353	67.084302222663	0.05
2	1355	67.184302222663	0.05
2	1357	67.284302222663	0.05
2	1359	67.384302222663	0.05
2	1361	67.484302222663	0.05
2	1363	67.584302222663	0.05
2	1363	67.661994214	0.05
2	1365	67.684302222663	0.05
2	1367	67.784302222663	0.05
2	1369	67.884302222663	0.05
2	1371	67.984302222663	0.05
2	1373	68.084302222663	0.05
2	1373	68.141601946	0.05
2	1375	68.184302222663	0.05
2	1377	68.284302222663	0.05
2	1379	68.384302222663	0.05
2	1381	68.484302222663	0.05
2	1383	68.584302222663	0.05
2	1383	68.644648279	0.05
2	1385	68.684302222663	0.05
2	1387	68.784302222663	0.05
2	1389	68.884302222663	0.05
2	1389	68.904936649	0.05
2	1391	68.984302222663	0.05
2	1393	69.084302222663	0.05
2	1395	69.184302222663	0.05
2	1397	69.284302222663	0.05
2	1399	69.384302222663	0.05
2	1399	69.437495467	0.05
2	1401	69.484302222663	0.05
2	1403	69.584302222663	0.05
2	1405	69.684302222663	0.05
2	1407	69.784302222663	0.05
2	1409	69.884302222663	0.05
2	1411	69.984302222663	0.05
2	1411	70.055893786	0.05
2	1413	70.084302222663	0.05
2	1415	70.184302222663	0.05
2	1417	70.284302222663	0.05
2	1419	70.384302222663	0.05
2	1421	70.484302222663	0.05
2	1421	70.486967971	0.05
2	1423	70.584302222663	0.05
2	1425	70.684302222663	0.05
2	1427	70.784302222663	0.05
2	1429	70.884302222663	0.05
2	1431	70.984302222663	0.05
2	1431	71.032430419	0.05
2	1433	71.084302222663	0.05
2	1435	71.184302222663	0.05
2	1437	71.284302222663	0.05
2	1439	71.384302222663	0.05
2	1439	71.450920096	0.05
2	1441	71.484302222663	0.05
2	1443	71.584302222663	0.05
2	1445	71.684302222663	0.05
2	1447	71.784302222663	0.05
2	1449	71.884302222663	0.05
2	1449	71.89510165	0.05
2	1451	71.984302222663	0.05
2	1453	72.084302222663	0.05
2	1455	72.184302222663	0.05
2	1457	72.284302222663	0.05
2	1459	72.384302222663	0.05
2	1459	72.423531169	0.05
2	1461	72.484302222663	0.05
2	1463	72.584302222663	0.05
2	1465	72.684302222663	0.05
2	1467	72.784302222663	0.05
2	1469	72.884302222663	0.05
2	1469	72.91011304	0.0495
2	1469	72.91011304	0.0495
2	1471	72.984302222663	0.0495
2	1473	73.084302222663	0.0495
2	1475	73.184302222663	0.0495
2	1477	73.284302222663	0.0495
2	1477	73.354623898	0.0495
2	1479	73.384302222663	0.0495
2	1481	73.484302222663	0.0495
2	1483	73.584302222663	0.0495
2	1485	73.684302222663	0.0495
2	1487	73.784302222663	0.0495
2	1487	73.859995939	0.0495
2	1489	73.884302222663	0.0495
2	1491	73.984302222663	0.0495
2	1493	74.084302222663	0.0495
2	1495	74.184302222663	0.0495
2	1496	74.275036213	0.0495
2	1497	74.284302222663	0.0495
2	1499	74.384302222663	0.0495
2	1501	74.484302222663	0.0495
2	1503	74.584302222663	0.0495
2	1504	74.677869289	0.0495
[...]
2	2071	101.344628648702	0.04707400747005
2	2073	101.444628648702	0.04707400747005
2	2075	101.544628648702	0.04707400747005
2	2077	101.644628648702	0.04707400747005
2	2079	101.701214101046	0.04707400747005
2	2079	101.734504546	0.04707400747005
2	2081	101.801214101046	0.04707400747005
2	2083	101.901214101046	0.04707400747005
2	2085	102.001214101046	0.04707400747005
2	2087	102.101214101046	0.04707400747005
2	2087	102.165773446	0.04707400747005
2	2089	102.201214101046	0.04707400747005
2	2091	102.301214101046	0.04707400747005
2	2093	102.401214101046	0.04707400747005
2	2095	102.501214101046	0.04707400747005
2	2097	102.601214101046	0.04707400747005
2	2098	102.698452123	0.04707400747005
2	2099	102.701214101046	0.04707400747005
2	2101	102.801214101046	0.04707400747005
2	2103	102.901214101046	0.04707400747005
2	2105	103.001214101046	0.04707400747005
2	2107	103.101214101046	0.04707400747005
2	2109	103.201214101046	0.04707400747005
2	2109	103.240014802	0.04707400747005
2	2111	103.301214101046	0.04707400747005
2	2113	103.401214101046	0.04707400747005
2	2115	103.501214101046	0.04707400747005
2	2117	103.601214101046	0.04707400747005
2	2119	103.701214101046	0.04707400747005
2	2121	103.801214101046	0.04707400747005
2	2121	103.852103737	0.04707400747005
2	2123	103.901214101046	0.04707400747005
2	2125	104.001214101046	0.04707400747005
2	2127	104.101214101046	0.04707400747005
2	2129	104.201214101046	0.04707400747005
2	2131	104.301214101046	0.04707400747005
2	2131	104.315945836	0.04707400747005
2	2133	104.401214101046	0.04707400747005
2	2135	104.501214101046	0.04707400747005
2	2137	104.601214101046	0.04707400747005
2	2139	104.701214101046	0.04707400747005
2	2141	104.801214101046	0.04707400747005
2	2142	104.884125511	0.04707400747005
2	2143	104.901214101046	0.04707400747005
2	2145	105.001214101046	0.04707400747005
2	2147	105.101214101046	0.04707400747005
2	2149	105.201214101046	0.04707400747005
2	2151	105.301214101046	0.04707400747005
2	2151	105.31703221	0.04660326739535
2	2151	105.31703221	0.04660326739535
2	2153	105.401214101046	0.04660326739535
2	2155	105.501214101046	0.04660326739535
2	2157	105.601214101046	0.04660326739535
2	2159	105.701214101046	0.04660326739535
2	2160	105.783056716	0.04660326739535
2	2161	105.801214101046	0.04660326739535
2	2163	105.901214101046	0.04660326739535
2	2165	106.001214101046	0.04660326739535
2	2167	106.101214101046	0.04660326739535
2	2169	106.201214101046	0.04660326739535
2	2171	106.301214101046	0.04660326739535
2	2171	106.365698302	0.04660326739535
2	2173	106.401214101046	0.04660326739535
2	2175	106.501214101046	0.04660326739535
2	2177	106.601214101046	0.04660326739535
2	2179	106.701214101046	0.04660326739535
2	2181	106.801214101046	0.04660326739535
2	2183	106.901214101046	0.04660326739535
2	2184	106.996452448	0.04660326739535
2	2185	107.001214101046	0.04660326739535
2	2187	107.101214101046	0.04660326739535
2	2189	107.201214101046	0.04660326739535
2	2189	107.25740449	0.04660326739535
2	2191	107.270552576711	0.04660326739535
2	2193	107.370552576711	0.04660326739535
2	2195	107.470552576711	0.04660326739535
2	2197	107.570552576711	0.04660326739535
2	2199	107.670552576711	0.04660326739535
2	2201	107.770552576711	0.04660326739535
2	2201	107.800933546	0.04660326739535
2	2203	107.870552576711	0.04660326739535
2	2205	107.970552576711	0.04660326739535
2	2207	108.070552576711	0.04660326739535
2	2209	108.170552576711	0.04660326739535
2	2211	108.270552576711	0.04660326739535
2	2211	108.323005696	0.04660326739535
2	2213	108.370552576711	0.04660326739535
2	2215	108.470552576711	0.04660326739535
2	2217	108.570552576711	0.04660326739535
2	2219	108.670552576711	0.04660326739535
2	2219	108.76574338	0.04660326739535
2	2221	108.770552576711	0.04660326739535
2	2223	108.870552576711	0.04660326739535
2	2225	108.970552576711	0.04660326739535
2	2227	109.070552576711	0.04660326739535
2	2229	109.170552576711	0.04660326739535
2	2229	109.217337118	0.04660326739535
2	2231	109.270552576711	0.04660326739535
2	2233	109.370552576711	0.04660326739535
2	2235	109.470552576711	0.04660326739535
2	2237	109.570552576711	0.04660326739535
2	2239	109.670552576711	0.04660326739535
2	2239	109.756655893	0.04660326739535
2	2241	109.770552576711	0.04660326739535
2	2243	109.870552576711	0.04660326739535
2	2245	109.970552576711	0.04660326739535
2	2247	110.070552576711	0.04660326739535
2	2249	110.170552576711	0.04660326739535
2	2251	110.270552576711	0.04660326739535
2	2251	110.348948116	0.04660326739535
2	2253	110.370552576711	0.04660326739535
2	2255	110.470552576711	0.04660326739535
2	2257	110.570552576711	0.04660326739535
2	2259	110.670552576711	0.04660326739535
2	2261	110.770552576711	0.04660326739535
2	2261	110.837636236	0.04660326739535
2	2263	110.870552576711	0.04660326739535
2	2265	110.970552576711	0.04660326739535
2	2267	111.070552576711	0.04660326739535
2	2269	111.170552576711	0.04660326739535
2	2271	111.270552576711	0.04660326739535
2	2273	111.370552576711	0.04660326739535
2	2273	111.451272547	0.04660326739535
2	2275	111.470552576711	0.04660326739535
2	2277	111.570552576711	0.04660326739535
2	2279	111.670552576711	0.04660326739535
2	2281	111.770552576711	0.04660326739535
2	2283	111.870552576711	0.04660326739535
2	2285	111.970552576711	0.04660326739535
2	2287	112.070552576711	0.04660326739535
2	2287	112.078151356	0.04660326739535
2	2289	112.170552576711	0.04660326739535
2	2291	112.270552576711	0.04660326739535
2	2293	112.370552576711	0.04660326739535
2	2295	112.470552576711	0.04660326739535
2	2297	112.570552576711	0.04660326739535
2	2299	112.670552576711	0.04660326739535
2	2300	112.74021676	0.04660326739535
2	2301	112.770552576711	0.04660326739535
2	2303	112.870552576711	0.04660326739535
2	2305	112.970552576711	0.04660326739535
2	2307	113.070552576711	0.04660326739535
2	2309	113.170552576711	0.04660326739535
2	2311	113.270552576711	0.04660326739535
2	2312	113.320747102	0.04660326739535
2	2313	113.370552576711	0.04660326739535
2	2315	113.470552576711	0.04660326739535
2	2317	113.570552576711	0.04660326739535
2	2319	113.670552576711	0.04660326739535
2	2321	113.770552576711	0.04660326739535
2	2323	113.870552576711	0.04660326739535
2	2325	113.970552576711	0.04660326739535
2	2326	114.00960664	0.04660326739535
2	2327	114.070552576711	0.04660326739535
2	2329	114.170552576711	0.04660326739535
2	2331	114.270552576711	0.04660326739535
2	2333	114.288822208971	0.04660326739535
2	2335	114.388822208971	0.04660326739535
2	2337	114.488822208971	0.04660326739535
2	2337	114.544572748	0.04660326739535
2	2339	114.588822208971	0.04660326739535
2	2341	114.688822208971	0.04660326739535
2	2343	114.788822208971	0.04660326739535
2	2345	114.888822208971	0.04660326739535
2	2347	114.988822208971	0.04660326739535
2	2349	115.088822208971	0.04660326739535
2	2349	115.18154515	0.04660326739535
2	2351	115.188822208971	0.04660326739535
2	2353	115.288822208971	0.04660326739535
2	2355	115.388822208971	0.04660326739535
2	2357	115.488822208971	0.04660326739535
2	2359	115.588822208971	0.04660326739535
2	2359	115.680088054	0.04660326739535
2	2361	115.688822208971	0.04660326739535
2	2363	115.788822208971	0.04660326739535
2	2365	115.888822208971	0.04660326739535
2	2367	115.988822208971	0.04660326739535
2	2369	116.088822208971	0.04660326739535
2	2371	116.188822208971	0.04660326739535
2	2371	116.196424468	0.04660326739535
2	2373	116.288822208971	0.04660326739535
2	2375	116.388822208971	0.04660326739535
2	2377	116.488822208971	0.04660326739535
2	2379	116.588822208971	0.04660326739535
2	2381	116.688822208971	0.04660326739535
2	2381	116.771515762	0.046137234721396
2	2381	116.771515762	0.046137234721396
2	2383	116.788822208971	0.046137234721396
2	2385	116.888822208971	0.046137234721396
2	2387	116.988822208971	0.046137234721396
2	2389	117.088822208971	0.046137234721396
2	2391	117.188822208971	0.046137234721396
2	2391	117.230720614	0.046137234721396
2	2393	117.288822208971	0.046137234721396
2	2394	117.32900100859	0.046137234721396
2	2396	117.388822208971	0.04637651952292
2	2397	117.419692328241	0.0465
2	2399	117.488822208971	0.04677651952292
2	2400	117.544692328241	0.047
2	2402	117.588822208971	0.04717651952292
2	2404	117.669692328241	0.0475
2	2405	117.688822208971	0.04757651952292
2	2405	117.760758121	0.047864263171036
2	2407	117.788822208971	0.04797651952292
2	2408	117.794692328241	0.048
2	2410	117.888822208971	0.047892754327691
2	2410	117.888822208971	0.047892754327691
2	2411	117.919692328241	0.0485
2	2413	117.988822208971	0.04877651952292
2	2414	118.044692328241	0.049
2	2416	118.088822208971	0.04917651952292
2	2418	118.169692328241	0.0495
2	2419	118.188822208971	0.04957651952292
2	2419	118.223506423	0.049715256379036
2	2421	118.288822208971	0.04997651952292
2	2422	118.294692328241	0.05
2	2424	118.388822208971	0.05
2	2426	118.488822208971	0.05
2	2428	118.588822208971	0.05
2	2429	118.669031899	0.05
2	2430	118.688822208971	0.05
2	2432	118.788822208971	0.05
2	2434	118.888822208971	0.05
2	2434	118.914797467	0.05
2	2436	118.988822208971	0.05
2	2438	119.088822208971	0.0495
2	2438	119.088822208971	0.0495
2	2440	119.188822208971	0.0499
2	2440	119.207612167	0.049975159832116
2	2442	119.288822208971	0.05
2	2444	119.380697487343	0.05
2	2446	119.480697487343	0.05
2	2448	119.580697487343	0.05
2	2450	119.680697487343	0.05
2	2450	119.710032796	0.05
2	2452	119.780697487343	0.05
2	2454	119.880697487343	0.05
2	2456	119.980697487343	0.05
2	2458	120.080697487343	0.05
2	2460	120.180697487343	0.05
2	2460	120.24627808	0.05
2	2462	120.280697487343	0.05
2	2464	120.380697487343	0.05
2	2466	120.480697487343	0.0495
2	2466	120.480697487343	0.0495
2	2468	120.580697487343	0.0499
2	2470	120.680697487343	0.05
2	2472	120.780697487343	0.05
2	2472	120.851369665	0.05
2	2474	120.880697487343	0.05
2	2476	120.980697487343	0.05
2	2478	121.080697487343	0.05
2	2480	121.180697487343	0.05
2	2482	121.280697487343	0.05
2	2484	121.380697487343	0.05
2	2486	121.480697487343	0.05
2	2487	121.568092696	0.05
2	2488	121.580697487343	0.05
2	2490	121.680697487343	0.05
2	2492	121.780697487343	0.05
2	2494	121.880697487343	0.05
2	2496	121.980697487343	0.0495
2	2496	121.980697487343	0.0495
2	2498	122.080697487343	0.0499
2	2498	122.124226324	0.05
2	2500	122.180697487343	0.05
2	2502	122.280697487343	0.05
2	2504	122.380697487343	0.05
2	2506	122.480697487343	0.05
2	2508	122.580697487343	0.05
2	2510	122.680697487343	0.05
2	2511	122.764198957	0.05
2	2512	122.780697487343	0.05
2	2514	122.880697487343	0.05
2	2516	122.980697487343	0.05
2	2518	123.080697487343	0.05
2	2520	123.180697487343	0.05
2	2520	123.206019946	0.05
2	2522	123.280697487343	0.05
2	2524	123.380697487343	0.0495
2	2524	123.380697487343	0.0495
2	2526	123.480697487343	0.0499
2	2528	123.580697487343	0.05
2	2529	123.667614484	0.05
2	2530	123.680697487343	0.05
2	2532	123.780697487343	0.05
2	2534	123.880697487343	0.05
2	2534	123.898783969	0.05
2	2536	123.980697487343	0.05
2	2538	124.080697487343	0.05
2	2540	124.177292694582	0.05
2	2542	124.277292694582	0.05
2	2544	124.377292694582	0.05
2	2544	124.431333913	0.05
2	2546	124.477292694582	0.05
2	2548	124.577292694582	0.05
2	2550	124.677292694582	0.05
2	2553	124.777292694582	0.05
2	2555	124.877292694582	0.05
2	2555	124.933329436	0.05
2	2557	124.977292694582	0.05
2	2559	125.077292694582	0.05
2	2561	125.177292694582	0.05
2	2564	125.277292694582	0.05
2	2566	125.377292694582	0.05
2	2568	125.477292694582	0.05
2	2568	125.516597464	0.05
2	2570	125.577292694582	0.05
2	2572	125.677292694582	0.05
2	2574	125.777292694582	0.05
2	2574	125.806328731	0.05
2	2576	125.877292694582	0.05
2	2578	125.977292694582	0.05
2	2580	126.077292694582	0.0495
2	2580	126.077292694582	0.0495
2	2582	126.177292694582	0.0499
2	2584	126.277292694582	0.05
2	2585	126.374037844	0.05
2	2586	126.377292694582	0.05
2	2588	126.477292694582	0.05
2	2590	126.577292694582	0.05
2	2592	126.677292694582	0.05
2	2594	126.777292694582	0.05
2	2594	126.820727176	0.05
2	2596	126.877292694582	0.05
2	2598	126.977292694582	0.05
2	2600	127.077292694582	0.05
2	2602	127.177292694582	0.05
2	2602	127.197745351	0.05
2	2604	127.277292694582	0.05
2	2606	127.377292694582	0.05
2	2607	127.471775374	0.0495
2	2607	127.471775374	0.0495
2	2608	127.477292694582	0.049522069282328
2	2610	127.577292694582	0.049922069282328
2	2612	127.677292694582	0.05
2	2614	127.777292694582	0.05
2	2616	127.877292694582	0.05
2	2616	127.948264462	0.05
2	2618	127.977292694582	0.05
2	2620	128.077292694582	0.05
2	2622	128.177292694582	0.05
2	2622	128.242509451	0.05
2	2624	128.277292694582	0.05
2	2626	128.377292694582	0.05
2	2629	128.477292694582	0.05
2	2632	128.577292694582	0.05
2	2634	128.677292694582	0.05
2	2634	128.724098323	0.05
2	2636	128.777292694582	0.05
2	2638	128.877292694582	0.05
2	2640	128.977292694582	0.05
2	2642	129.077292694582	0.05
2	2644	129.177292694582	0.05
2	2644	129.186938527	0.05
2	2646	129.277292694582	0.05
2	2648	129.377292694582	0.05
2	2650	129.477292694582	0.05
2	2652	129.577292694582	0.05
2	2654	129.677292694582	0.05
2	2655	129.764724088	0.05
2	2656	129.777292694582	0.05
2	2658	129.877292694582	0.05
2	2660	129.977292694582	0.05
2	2662	130.077292694582	0.05
2	2664	130.177292694582	0.0495
2	2664	130.177292694582	0.0495
2	2666	130.277292694582	0.0499
2	2667	130.376403913	0.05
2	2668	130.377292694582	0.05
2	2670	130.477292694582	0.05
2	2672	130.577292694582	0.05
2	2675	130.677292694582	0.05
2	2677	130.777292694582	0.05
2	2678	130.871592049	0.05
2	2679	130.877292694582	0.05
2	2681	130.977292694582	0.05
2	2683	131.077292694582	0.05
2	2685	131.177292694582	0.05
2	2687	131.277292694582	0.05
2	2689	131.377292694582	0.05
2	2691	131.477292694582	0.05
2	2693	131.577292694582	0.05
2	2695	131.677292694582	0.05
2	2695	131.686293109	0.05
2	2697	131.777292694582	0.05
2	2699	131.877292694582	0.05
2	2701	131.977292694582	0.05
2	2703	132.077292694582	0.05
2	2704	132.173991622	0.05
2	2705	132.177292694582	0.05
2	2707	132.277292694582	0.05
2	2709	132.377292694582	0.05
2	2711	132.477292694582	0.05
2	2713	132.577292694582	0.05
2	2715	132.677292694582	0.05
2	2715	132.75162157	0.05
2	2717	132.777292694582	0.05
2	2719	132.877292694582	0.05
2	2721	132.977292694582	0.05
2	2723	133.077292694582	0.05
2	2725	133.177292694582	0.05
2	2727	133.277292694582	0.05
2	2727	133.327359376	0.05
2	2729	133.377292694582	0.05
2	2731	133.477292694582	0.05
2	2733	133.577292694582	0.05
2	2735	133.677292694582	0.05
2	2737	133.777292694582	0.05
2	2739	133.877292694582	0.05
2	2739	133.890818983	0.05
2	2741	133.977292694582	0.05
2	2743	134.077292694582	0.05
2	2745	134.177292694582	0.05
2	2747	134.277292694582	0.05
2	2749	134.377292694582	0.05
2	2751	134.477292694582	0.05
2	2751	134.492174083	0.0495
2	2751	134.492174083	0.0495
2	2753	134.577292694582	0.049840474446328
2	2755	134.677292694582	0.05
2	2757	134.777292694582	0.05
2	2759	134.877292694582	0.05
2	2761	134.977292694582	0.05
2	2763	135.077292694582	0.05
2	2763	135.136764133	0.05
2	2765	135.177292694582	0.05
2	2767	135.277292694582	0.05
2	2769	135.377292694582	0.05
2	2771	135.477292694582	0.05
2	2773	135.577292694582	0.05
2	2775	135.677292694582	0.05
2	2775	135.735164347	0.05
2	2777	135.777292694582	0.05
2	2779	135.877292694582	0.05
2	2779	135.963692005	0.0495
2	2779	135.963692005	0.0495
2	2781	135.977292694582	0.049554402758328
2	2783	136.077292694582	0.049954402758328
2	2785	136.177292694582	0.05
2	2787	136.277292694582	0.05
2	2789	136.377292694582	0.05
2	2791	136.477292694582	0.05
2	2791	136.493704414	0.05
2	2793	136.577292694582	0.05
2	2795	136.677292694582	0.05
2	2797	136.777292694582	0.05
2	2799	136.877292694582	0.05
2	2801	136.977292694582	0.05
2	2801	137.02554658	0.05
2	2803	137.077292694582	0.05
2	2805	137.177292694582	0.05
2	2807	137.277292694582	0.05
2	2809	137.377292694582	0.05
2	2811	137.477292694582	0.05
2	2813	137.577292694582	0.05
2	2815	137.677292694582	0.05
2	2816	137.70403588	0.05
2	2817	137.777292694582	0.05
2	2819	137.877292694582	0.05
2	2821	137.977292694582	0.05
2	2823	138.077292694582	0.05
2	2825	138.177292694582	0.05
2	2827	138.277292694582	0.05
2	2829	138.377292694582	0.05
2	2830	138.426479599	0.05
2	2831	138.477292694582	0.05
2	2833	138.577292694582	0.05
2	2835	138.677292694582	0.05
2	2837	138.777292694582	0.05
2	2839	138.877292694582	0.05
2	2841	138.977292694582	0.05
2	2842	138.994495168	0.05
2	2843	139.077292694582	0.05
2	2845	139.177292694582	0.05
2	2847	139.277292694582	0.05
2	2849	139.377292694582	0.05
2	2850	139.475482024	0.05
2	2851	139.477292694582	0.05
2	2853	139.577292694582	0.05
2	2855	139.677292694582	0.05
2	2857	139.777292694582	0.05
2	2859	139.877292694582	0.05
2	2860	139.976577787	0.05
2	2861	139.977292694582	0.05
2	2863	140.077292694582	0.05
2	2865	140.177292694582	0.05
2	2867	140.277292694582	0.05
2	2869	140.377292694582	0.05
2	2871	140.477292694582	0.05
2	2872	140.491580569	0.05
2	2873	140.577292694582	0.05
2	2875	140.677292694582	0.05
2	2877	140.777292694582	0.05
2	2879	140.877292694582	0.05
2	2880	140.941601923	0.05
2	2881	140.977292694582	0.05
2	2883	141.077292694582	0.05
2	2885	141.177292694582	0.05
2	2887	141.209755984582	0.05
2	2888	141.277292694582	0.05
2	2890	141.377292694582	0.05
2	2891	141.387823462	0.05
2	2892	141.477292694582	0.05
2	2894	141.577292694582	0.0495
2	2894	141.577292694582	0.0495
2	2896	141.677292694582	0.0495
2	2898	141.777292694582	0.0495
2	2899	141.820266337	0.0495
2	2900	141.877292694582	0.0495
2	2902	141.977292694582	0.0495
2	2904	142.077292694582	0.0495
2	2906	142.177292694582	0.0495
2	2908	142.277292694582	0.0495
2	2909	142.368801166	0.0495
2	2910	142.377292694582	0.0495
2	2912	142.477292694582	0.0495
2	2914	142.577292694582	0.0495
2	2916	142.677292694582	0.0495
2	2918	142.777292694582	0.0495
2	2919	142.800731935	0.0495
2	2920	142.877292694582	0.0495
2	2922	142.977292694582	0.049005
2	2922	142.977292694582	0.049005
2	2924	143.077292694582	0.049005
2	2926	143.177292694582	0.049005
2	2928	143.277292694582	0.049005
2	2929	143.308188628	0.049005
2	2930	143.377292694582	0.049005
2	2932	143.477292694582	0.049005
2	2934	143.577292694582	0.049005
2	2936	143.677292694582	0.049005
2	2938	143.777292694582	0.049005
2	2939	143.854699789	0.049005
2	2940	143.877292694582	0.049005
2	2942	143.977292694582	0.049005
2	2944	144.047402266936	0.049005
2	2945	144.077292694582	0.049124561710584
2	2947	144.171152266936	0.0495
2	2948	144.177292694582	0.049524561710584
2	2950	144.277292694582	0.049924561710584
2	2952	144.296152266936	0.0495
2	2952	144.296152266936	0.0495
2	2952	144.324445168	0.049613171604256
2	2953	144.377292694582	0.049824561710584
2	2955	144.421152266936	0.05
2	2956	144.477292694582	0.05
2	2958	144.577292694582	0.05
2	2959	144.599558278	0.05
2	2960	144.677292694582	0.05
2	2962	144.777292694582	0.05
2	2963	144.864962605	0.05
2	2964	144.877292694582	0.05
2	2966	144.977292694582	0.05
2	2968	145.077292694582	0.05
2	2970	145.177292694582	0.05
2	2972	145.277292694582	0.05
2	2973	145.34346085	0.05
2	2974	145.377292694582	0.05
2	2976	145.477292694582	0.05
2	2978	145.577292694582	0.0495
2	2978	145.577292694582	0.0495
2	2980	145.677292694582	0.0499
2	2982	145.777292694582	0.05
2	2983	145.85596378	0.05
2	2984	145.877292694582	0.05
2	2986	145.977292694582	0.05
2	2988	146.077292694582	0.05
2	2990	146.177292694582	0.05
2	2991	146.27511844	0.05
2	2992	146.277292694582	0.05
2	2994	146.377292694582	0.05
2	2996	146.477292694582	0.05
2	2998	146.577292694582	0.05
2	3000	146.677292694582	0.05
2	3001	146.724211534	0.05
2	3002	146.777292694582	0.05
2	3004	146.877292694582	0.05
2	3006	146.977292694582	0.0495
2	3006	146.977292694582	0.0495
2	3008	147.077292694582	0.0499
2	3010	147.177292694582	0.05
2	3011	147.19211857	0.05
2	3011	147.277292694582	0.05
3	0	0	0.004
3	944	46.974101355068	0
3	1049	52.166683510363	0.004
3	1147	56.795584847502	0
3	2394	117.32900100859	0.004
3	2887	141.209755984582	0
3	2944	144.047402266936	0.004
4	0	0	0.004
4	461	23.08057828677	0
4	542	27.053907778174	0.004
4	615	30.518578313751	0
4	1947	96.748284869505	0.004
4	2551	124.684689911804	0
4	2627	128.409862864363	0.004
5	0	0	0.004
5	944	46.974101355068	0
5	1049	52.166683510363	0.004
5	1147	56.795584847502	0
5	2394	117.32900100859	0.004
5	2887	141.209755984582	0
5	2944	144.047402266936	0.004

