version 2
run Mysterio_ex2-0-20210907-11:52:11-11384
attr configname Mysterio_ex2
attr datetime 20210907-11:52:11
attr experiment Mysterio_ex2
attr inifile omnetpp.ini
attr iterationvars ""
attr iterationvarsf ""
attr measurement ""
attr network MysterioCommunication2
attr processid 11384
attr repetition 0
attr replication #0
attr resultdir results
attr runnumber 0
attr seedset 0
param *.host[*].mobility.numeroDrones 2
param *.numHosts 2
param *.host[*].osgModel "\"3d/drone.ive.100.scale.0,0,90.rot\""
param *.basestation.osgModel "\"3d/car.ive.50.scale.0,0,90.rot\""
param *.canvasVisualizer.energyStorageVisualizer.displayEnergyStorages true
param *.host[*].hasStatus true
param *.host[*].energyStorage.typename "\"SimpleEpEnergyStorage\""
param *.host[*].wlan[*].radio.energyConsumer.typename "\"StateBasedEpEnergyConsumer\""
param *.host[*].energyManagement.typename "\"SimpleEpEnergyManagement\""
param *.host[*].energyStorage.nominalCapacity 0.05J
param *.host[*].energyManagement.nodeShutdownCapacity "0.1 * energyStorage.nominalCapacity"
param *.host[*].energyManagement.nodeStartCapacity "0.5 * energyStorage.nominalCapacity"
param *.host[*].energyStorage.initialCapacity 0.05J
param *.host[*].energyGenerator.typename "\"AlternatingEpEnergyGenerator\""
param *.host[*].energyGenerator.powerGeneration 4mW
param *.host[*].energyGenerator.sleepInterval exponential(25s)
param *.host[*].energyGenerator.generationInterval exponential(25s)
param *.host[*].mobility.typename "\"UAVMobility\""
param *.host[*].mobility.changeInterval 1s
param *.host[*].mobility.initialMovementHeading "uniform(0deg, 360deg)"
param *.host[*].mobility.initialMovementElevation "uniform(-90deg, 90deg)"
param *.host[*].mobility.angleDelta uniform(-10deg,10deg)
param *.host[*].mobility.rotationAxisAngle uniform(-10deg,10deg)
param *.host[*].mobility.speed uniform(10mps,20mps)
param *.host[*].mobility.faceForward false
param *.host[*].mobility.initialX 220m
param *.host[*].mobility.initialY 220m
param *.host[*].mobility.initialZ 80m
param *.visualizer.osgVisualizer.typename "\"IntegratedOsgVisualizer\""
param *.visualizer.osgVisualizer.sceneVisualizer.clearColor "\"skyblue\""
param *.visualizer.osgVisualizer.sceneVisualizer.sceneImage "\"showcases/desert\""
param *.visualizer.osgVisualizer.sceneVisualizer.sceneImageSize 5000m
param *.visualizer.osgVisualizer.sceneVisualizer.axisLength 1000m
param *.visualizer.osgVisualizer.sceneVisualizer.sceneMinX -2000m
param *.visualizer.osgVisualizer.sceneVisualizer.sceneMinY -2000m
param *.visualizer.osgVisualizer.sceneVisualizer.sceneMinZ 0m
param *.visualizer.osgVisualizer.sceneVisualizer.sceneMaxX 3000m
param *.visualizer.osgVisualizer.sceneVisualizer.sceneMaxY 3000m
param *.visualizer.osgVisualizer.sceneVisualizer.sceneMaxZ 1000m
param *.visualizer.osgVisualizer.networkNodeVisualizer.displayModuleName false
param *.visualizer.*.mobilityVisualizer.displayMobility true
param *.visualizer.*.mobilityVisualizer.displayPositions true
param *.visualizer.*.mobilityVisualizer.displayOrientations false
param *.visualizer.*.mobilityVisualizer.displayVelocities true
param *.visualizer.*.mobilityVisualizer.displayMovementTrails true
param *.visualizer.*.mobilityVisualizer.animationSpeed 3
param **.constraintAreaMinX 0m
param **.constraintAreaMinY 0m
param **.constraintAreaMinZ 0m
param **.constraintAreaMaxX 1000m
param **.constraintAreaMaxY 1000m
param **.constraintAreaMaxZ 1000m
param **.networkConfiguratorModule "\"\""

vector 0 MysterioCommunication2.host[0].energyStorage residualEnergyCapacity:vector ETV
attr interpolationmode linear
attr source residualEnergyCapacityChanged
attr title "Residual energy capacity, vector"
vector 1 MysterioCommunication2.host[0].energyGenerator powerGeneration:vector ETV
attr interpolationmode sample-hold
attr source powerGenerationChanged
attr title "Power generation, vector"
vector 2 MysterioCommunication2.host[1].energyStorage residualEnergyCapacity:vector ETV
attr interpolationmode linear
attr source residualEnergyCapacityChanged
attr title "Residual energy capacity, vector"
vector 3 MysterioCommunication2.host[1].energyGenerator powerGeneration:vector ETV
attr interpolationmode sample-hold
attr source powerGenerationChanged
attr title "Power generation, vector"
vector 4 MysterioCommunication2.host[0].energyStorage powerGeneration:vector ETV
attr interpolationmode sample-hold
attr source powerGenerationChanged
attr title "Power generation, vector"
vector 5 MysterioCommunication2.host[1].energyStorage powerGeneration:vector ETV
attr interpolationmode sample-hold
attr source powerGenerationChanged
attr title "Power generation, vector"
0	0	0	0.05
0	0	0.1	0.05
0	2	0.184899346	0.05
0	3	0.2	0.05
0	5	0.3	0.05
0	7	0.4	0.05
0	9	0.5	0.05
0	11	0.6	0.05
0	12	0.687962302	0.05
0	13	0.7	0.05
0	15	0.8	0.05
0	17	0.9	0.05
0	19	1	0.05
0	21	1.1	0.05
0	23	1.2	0.05
0	25	1.3	0.05
0	27	1.4	0.05
0	28	1.493607781	0.05
0	29	1.5	0.05
0	31	1.6	0.05
0	33	1.7	0.05
0	35	1.8	0.05
0	37	1.9	0.05
0	38	1.962836383	0.05
0	39	2	0.05
0	41	2.1	0.05
0	43	2.2	0.05
0	45	2.3	0.05
0	46	2.374099198	0.05
0	47	2.4	0.05
0	49	2.5	0.05
0	51	2.6	0.05
0	53	2.7	0.05
0	55	2.8	0.05
0	56	2.839553041	0.05
0	57	2.9	0.05
0	59	3	0.05
0	61	3.1	0.05
0	63	3.2	0.05
0	65	3.3	0.05
0	66	3.338135431	0.05
0	67	3.4	0.05
0	69	3.5	0.05
0	71	3.6	0.05
0	73	3.7	0.05
0	75	3.8	0.05
0	76	3.88594678	0.05
0	77	3.9	0.05
0	79	4	0.05
0	81	4.1	0.05
0	83	4.2	0.05
0	85	4.3	0.05
0	86	4.384905151	0.05
0	87	4.4	0.05
0	89	4.5	0.05
0	91	4.6	0.05
0	93	4.7	0.05
0	95	4.8	0.05
0	97	4.9	0.05
0	98	4.971875317	0.05
0	99	5	0.05
0	101	5.1	0.05
0	103	5.2	0.05
0	104	5.201910982	0.05
0	105	5.3	0.05
0	107	5.4	0.05
0	108	5.498655457	0.05
0	109	5.5	0.05
0	111	5.6	0.05
0	113	5.7	0.05
0	115	5.8	0.05
0	117	5.9	0.05
0	119	6	0.05
0	120	6.006845341	0.05
0	121	6.1	0.05
0	123	6.2	0.05
0	125	6.3	0.05
0	127	6.4	0.05
0	129	6.5	0.05
0	130	6.588374353	0.05
0	131	6.6	0.05
0	133	6.7	0.05
0	135	6.8	0.05
0	137	6.9	0.05
0	139	7	0.05
0	141	7.1	0.05
0	142	7.166393917	0.05
0	143	7.2	0.05
0	145	7.3	0.05
0	147	7.4	0.05
0	149	7.5	0.05
0	151	7.6	0.05
0	153	7.7	0.05
0	154	7.74701212	0.05
0	155	7.8	0.05
0	157	7.9	0.05
0	159	8	0.05
0	161	8.1	0.05
0	163	8.2	0.05
0	164	8.296752589	0.05
0	165	8.3	0.05
0	167	8.4	0.05
0	169	8.5	0.05
0	170	8.541161611	0.05
0	171	8.6	0.05
0	173	8.7	0.05
0	175	8.8	0.05
0	177	8.9	0.05
0	179	9	0.05
0	180	9.033097438	0.05
0	181	9.1	0.05
0	183	9.2	0.05
0	185	9.3	0.05
0	187	9.4	0.05
0	189	9.5	0.05
0	190	9.584827087	0.05
0	191	9.6	0.05
0	193	9.7	0.05
0	195	9.8	0.05
0	197	9.9	0.05
0	199	10	0.05
0	201	10.1	0.05
0	202	10.14522544	0.05
0	203	10.2	0.05
0	205	10.3	0.05
0	207	10.4	0.05
0	209	10.5	0.05
0	211	10.6	0.05
0	213	10.7	0.05
0	214	10.780471894	0.05
0	215	10.8	0.05
0	217	10.9	0.05
0	219	11	0.05
0	221	11.1	0.05
0	223	11.2	0.05
0	225	11.3	0.05
0	226	11.310252019	0.05
0	227	11.4	0.05
0	229	11.5	0.05
0	231	11.6	0.05
0	233	11.7	0.05
0	235	11.8	0.05
0	236	11.856847555	0.05
0	237	11.9	0.05
0	239	12	0.05
0	241	12.1	0.05
0	243	12.2	0.05
0	245	12.3	0.05
0	246	12.369187228	0.05
0	247	12.4	0.05
0	249	12.5	0.05
0	251	12.6	0.05
0	253	12.7	0.05
0	255	12.8	0.05
0	256	12.838379278	0.05
0	257	12.9	0.05
0	259	13	0.05
0	261	13.1	0.05
0	263	13.2	0.05
0	265	13.3	0.05
0	267	13.4	0.05
0	268	13.439444338	0.05
0	269	13.5	0.05
0	271	13.6	0.05
0	273	13.7	0.05
0	274	13.737404704	0.05
0	275	13.8	0.05
0	277	13.9	0.05
0	279	14	0.05
0	281	14.1	0.05
0	283	14.2	0.05
0	284	14.257821169	0.05
0	285	14.3	0.05
0	287	14.4	0.05
0	289	14.5	0.05
0	291	14.6	0.05
0	293	14.7	0.05
0	295	14.8	0.05
0	297	14.9	0.05
0	298	14.992908028	0.05
0	299	15	0.05
0	301	15.1	0.05
0	303	15.2	0.05
0	305	15.3	0.05
0	307	15.4	0.05
0	309	15.5	0.05
0	311	15.6	0.05
0	313	15.7	0.05
0	314	15.733013797	0.05
0	315	15.8	0.05
0	317	15.9	0.05
0	319	16	0.05
0	321	16.1	0.05
0	323	16.2	0.05
0	325	16.3	0.05
0	327	16.4	0.05
0	328	16.443415726	0.05
0	329	16.5	0.05
0	331	16.6	0.05
0	333	16.7	0.05
0	335	16.8	0.05
0	337	16.9	0.05
0	339	17	0.05
0	340	17.076516295	0.05
0	341	17.1	0.05
0	343	17.2	0.05
0	345	17.3	0.05
0	347	17.4	0.05
0	349	17.5	0.05
0	351	17.6	0.05
0	352	17.62010599	0.05
0	353	17.7	0.05
0	355	17.8	0.05
0	357	17.9	0.05
0	359	18	0.05
0	360	18.079617598	0.05
0	361	18.1	0.05
0	363	18.2	0.05
0	365	18.3	0.05
0	367	18.4	0.05
0	369	18.5	0.05
0	370	18.589364335	0.05
0	371	18.6	0.05
0	373	18.7	0.05
0	375	18.8	0.05
0	377	18.9	0.05
0	379	19	0.05
0	381	19.1	0.05
0	382	19.160457727	0.05
0	383	19.2	0.05
0	385	19.3	0.05
0	387	19.4	0.05
0	389	19.5	0.05
0	391	19.6	0.05
0	393	19.7	0.05
0	394	19.711261102	0.05
0	395	19.8	0.05
0	397	19.9	0.05
0	399	20	0.05
0	401	20.1	0.05
0	402	20.163563062	0.05
0	403	20.2	0.05
0	405	20.3	0.05
0	407	20.4	0.05
0	409	20.5	0.05
0	411	20.6	0.05
0	412	20.613183877	0.05
0	413	20.7	0.05
0	415	20.8	0.05
0	417	20.9	0.05
0	419	21	0.05
0	421	21.1	0.05
0	423	21.2	0.05
0	425	21.3	0.05
0	426	21.308616649	0.05
0	427	21.4	0.05
0	429	21.5	0.05
0	431	21.6	0.05
0	433	21.7	0.05
0	435	21.8	0.05
0	437	21.9	0.05
0	439	22	0.05
0	440	22.056088933	0.05
0	441	22.1	0.05
0	443	22.2	0.05
0	445	22.3	0.05
0	447	22.4	0.05
0	449	22.5	0.05
0	451	22.6	0.05
0	453	22.7	0.05
0	455	22.8	0.05
0	456	22.87385869	0.05
0	457	22.9	0.05
0	459	23	0.05
0	461	23.08057828677	0.05
0	462	23.1	0.05
0	464	23.2	0.05
0	466	23.3	0.05
0	468	23.4	0.05
0	469	23.447090875	0.05
0	470	23.5	0.05
0	472	23.6	0.05
0	474	23.7	0.05
0	476	23.8	0.05
0	478	23.9	0.05
0	480	24	0.05
0	482	24.1	0.05
0	484	24.2	0.05
0	485	24.218659468	0.05
0	486	24.3	0.0495
0	486	24.3	0.0495
0	488	24.4	0.0495
0	490	24.5	0.0495
0	492	24.6	0.0495
0	494	24.7	0.0495
0	496	24.8	0.0495
0	498	24.9	0.0495
0	500	25	0.0495
0	501	25.040351566	0.0495
0	502	25.1	0.0495
0	504	25.2	0.0495
0	506	25.3	0.0495
0	508	25.4	0.0495
0	510	25.5	0.0495
0	512	25.6	0.0495
0	514	25.7	0.0495
0	516	25.8	0.0495
0	517	25.832816665	0.049005
0	517	25.832816665	0.049005
0	518	25.9	0.049005
0	520	26	0.049005
0	522	26.1	0.049005
0	524	26.2	0.049005
0	526	26.3	0.049005
0	528	26.4	0.049005
0	530	26.5	0.049005
0	532	26.6	0.049005
0	534	26.7	0.049005
0	536	26.8	0.049005
0	538	26.9	0.049005
0	539	26.912387752	0.049005
0	540	27	0.049005
0	542	27.1	0.049005
0	544	27.2	0.049005
0	546	27.3	0.049005
0	548	27.4	0.04851495
0	548	27.4	0.04851495
0	550	27.5	0.04851495
0	552	27.6	0.04851495
0	554	27.7	0.04851495
0	556	27.8	0.04851495
0	558	27.9	0.04851495
0	560	28	0.04851495
0	561	28.060639852	0.04851495
0	562	28.1	0.04851495
0	564	28.2	0.04851495
0	566	28.3	0.04851495
0	568	28.4	0.04851495
0	570	28.5	0.04851495
0	572	28.6	0.04851495
0	574	28.7	0.04851495
0	576	28.8	0.04851495
0	578	28.9	0.04851495
0	579	28.92917476	0.0480298005
0	579	28.92917476	0.0480298005
0	580	29	0.0480298005
0	582	29.1	0.0480298005
0	584	29.2	0.0480298005
0	586	29.3	0.0480298005
0	588	29.4	0.0480298005
0	590	29.5	0.0480298005
0	592	29.6	0.0480298005
0	593	29.63237098	0.0480298005
0	594	29.7	0.0480298005
0	596	29.8	0.0480298005
0	598	29.9	0.0480298005
0	600	30	0.0480298005
0	602	30.1	0.0480298005
0	604	30.2	0.0480298005
0	606	30.3	0.0480298005
0	607	30.323819491	0.0480298005
0	608	30.4	0.047549502495
0	608	30.4	0.047549502495
0	610	30.5	0.047549502495
0	612	30.6	0.047549502495
0	614	30.7	0.047549502495
0	616	30.8	0.047549502495
0	617	30.887620723	0.047549502495
0	618	30.9	0.047549502495
0	620	31	0.047549502495
0	622	31.1	0.047549502495
0	624	31.2	0.047549502495
0	626	31.3	0.047549502495
0	628	31.4	0.047549502495
0	629	31.496530618	0.047549502495
0	630	31.5	0.047549502495
0	632	31.6	0.047549502495
0	634	31.7	0.047549502495
0	636	31.8	0.047549502495
0	638	31.9	0.04707400747005
0	638	31.9	0.04707400747005
0	640	32	0.04707400747005
0	642	32.1	0.04707400747005
0	643	32.14056985	0.04707400747005
0	644	32.2	0.04707400747005
0	646	32.3	0.04707400747005
0	648	32.4	0.04707400747005
0	650	32.5	0.04707400747005
0	652	32.6	0.04707400747005
0	653	32.693758429	0.04707400747005
0	654	32.7	0.04707400747005
0	656	32.8	0.04707400747005
0	658	32.9	0.04707400747005
0	660	33	0.04707400747005
0	662	33.1	0.04707400747005
0	664	33.2	0.04707400747005
0	665	33.247609006	0.04707400747005
0	666	33.3	0.04660326739535
0	666	33.3	0.04660326739535
0	668	33.4	0.04660326739535
0	670	33.5	0.04660326739535
0	672	33.6	0.04660326739535
0	674	33.7	0.04660326739535
0	676	33.8	0.04660326739535
0	677	33.82217383	0.04660326739535
0	678	33.9	0.04660326739535
0	680	34	0.04660326739535
0	682	34.1	0.04660326739535
0	684	34.2	0.04660326739535
0	686	34.3	0.04660326739535
0	688	34.4	0.04660326739535
0	689	34.481944018	0.04660326739535
0	690	34.5	0.04660326739535
0	692	34.6	0.04660326739535
0	694	34.7	0.04660326739535
0	696	34.8	0.046137234721396
0	696	34.8	0.046137234721396
0	698	34.9	0.046137234721396
0	700	35	0.046137234721396
0	702	35.1	0.046137234721396
0	703	35.133411244	0.046137234721396
0	704	35.2	0.046137234721396
0	706	35.3	0.046137234721396
0	708	35.4	0.046137234721396
0	710	35.5	0.046137234721396
0	712	35.6	0.046137234721396
0	714	35.7	0.046137234721396
0	715	35.754408427	0.046137234721396
0	716	35.8	0.046137234721396
0	718	35.9	0.046137234721396
0	720	36	0.046137234721396
0	722	36.1	0.046137234721396
0	724	36.2	0.046137234721396
0	725	36.263683786	0.045675862374182
0	725	36.263683786	0.045675862374182
0	726	36.3	0.045675862374182
0	728	36.4	0.045675862374182
0	730	36.5	0.045675862374182
0	732	36.6	0.045675862374182
0	734	36.7	0.045675862374182
0	735	36.790118362	0.045675862374182
0	736	36.8	0.045675862374182
0	738	36.9	0.045675862374182
0	740	37	0.045675862374182
0	742	37.1	0.045675862374182
0	744	37.2	0.045675862374182
0	746	37.3	0.045675862374182
0	747	37.364131759	0.045675862374182
0	748	37.4	0.045675862374182
0	750	37.5	0.045675862374182
0	752	37.6	0.045675862374182
0	754	37.7	0.04521910375044
0	754	37.7	0.04521910375044
0	756	37.8	0.04521910375044
0	758	37.9	0.04521910375044
0	759	37.92277012	0.04521910375044
0	760	38	0.04521910375044
0	762	38.1	0.04521910375044
0	764	38.2	0.04521910375044
0	766	38.3	0.04521910375044
0	768	38.4	0.04521910375044
0	770	38.5	0.04521910375044
0	771	38.52305326	0.04521910375044
0	772	38.6	0.04521910375044
0	774	38.7	0.04521910375044
0	776	38.8	0.04521910375044
0	778	38.9	0.04521910375044
0	780	39	0.04521910375044
0	782	39.1	0.04521910375044
0	783	39.145137817	0.044766912712936
0	783	39.145137817	0.044766912712936
0	784	39.2	0.044766912712936
0	786	39.3	0.044766912712936
0	788	39.4	0.044766912712936
0	790	39.5	0.044766912712936
0	792	39.6	0.044766912712936
0	794	39.7	0.044766912712936
0	795	39.799029424	0.044766912712936
0	796	39.8	0.044766912712936
0	798	39.9	0.044766912712936
0	800	40	0.044766912712936
0	802	40.1	0.044766912712936
0	804	40.2	0.044766912712936
0	806	40.3	0.044766912712936
0	807	40.392859969	0.044766912712936
0	808	40.4	0.044766912712936
0	810	40.5	0.044766912712936
0	812	40.6	0.044319243585806
0	812	40.6	0.044319243585806
0	814	40.7	0.044319243585806
0	816	40.8	0.044319243585806
0	818	40.9	0.044319243585806
0	820	41	0.044319243585806
0	822	41.1	0.044319243585806
0	824	41.2	0.044319243585806
0	825	41.203471153	0.044319243585806
0	826	41.3	0.044319243585806
0	828	41.4	0.044319243585806
0	830	41.5	0.044319243585806
0	832	41.6	0.044319243585806
0	834	41.7	0.044319243585806
0	836	41.8	0.044319243585806
0	837	41.807735143	0.044319243585806
0	838	41.9	0.044319243585806
0	840	42	0.044319243585806
0	842	42.1	0.043876051149948
0	842	42.1	0.043876051149948
0	844	42.2	0.043876051149948
0	846	42.3	0.043876051149948
0	847	42.362661892	0.043876051149948
0	848	42.4	0.043876051149948
0	850	42.5	0.043876051149948
0	852	42.6	0.043876051149948
0	854	42.7	0.043876051149948
0	856	42.8	0.043876051149948
0	858	42.9	0.043876051149948
0	859	42.981198943	0.043876051149948
0	860	43	0.043876051149948
0	862	43.1	0.043876051149948
0	864	43.2	0.043876051149948
0	866	43.3	0.043876051149948
0	868	43.4	0.043876051149948
0	870	43.5	0.043876051149948
0	871	43.509908806	0.043437290638449
0	871	43.509908806	0.043437290638449
0	872	43.6	0.043437290638449
0	874	43.7	0.043437290638449
0	876	43.8	0.043437290638449
0	878	43.9	0.043437290638449
0	880	44	0.043437290638449
0	881	44.042314435	0.043437290638449
0	882	44.1	0.043437290638449
0	884	44.2	0.043437290638449
0	886	44.3	0.043437290638449
0	888	44.4	0.043437290638449
0	890	44.5	0.043437290638449
0	892	44.6	0.043437290638449
0	894	44.7	0.043437290638449
0	896	44.8	0.043437290638449
0	897	44.83333483	0.043437290638449
0	898	44.9	0.043437290638449
0	900	45	0.043002917732064
0	900	45	0.043002917732064
0	902	45.1	0.043002917732064
0	904	45.2	0.043002917732064
0	906	45.3	0.043002917732064
0	908	45.4	0.043002917732064
0	909	45.470436319	0.043002917732064
0	910	45.5	0.043002917732064
0	912	45.6	0.043002917732064
0	914	45.7	0.043002917732064
0	916	45.8	0.043002917732064
0	918	45.9	0.043002917732064
0	920	46	0.043002917732064
0	921	46.033029259	0.043002917732064
0	922	46.1	0.043002917732064
0	924	46.2	0.043002917732064
0	926	46.3	0.043002917732064
0	928	46.4	0.043002917732064
0	930	46.5	0.042572888554744
0	930	46.5	0.042572888554744
0	931	46.546846903	0.042572888554744
0	932	46.6	0.042572888554744
0	934	46.7	0.042572888554744
0	936	46.8	0.042572888554744
0	938	46.9	0.042572888554744
0	941	47	0.042572888554744
0	943	47.1	0.042572888554744
0	944	47.126530033	0.042572888554744
0	945	47.2	0.042572888554744
0	947	47.3	0.042572888554744
0	949	47.4	0.042572888554744
0	951	47.5	0.042572888554744
0	953	47.6	0.042572888554744
0	955	47.7	0.042572888554744
0	956	47.737242835	0.042572888554744
0	957	47.8	0.042572888554744
0	959	47.9	0.042572888554744
0	961	48	0.042572888554744
0	963	48.1	0.042572888554744
0	965	48.2	0.042572888554744
0	967	48.3	0.042572888554744
0	969	48.4	0.042572888554744
0	970	48.447583633	0.042572888554744
0	971	48.5	0.042572888554744
0	973	48.6	0.042572888554744
0	975	48.7	0.042572888554744
0	977	48.8	0.042572888554744
0	979	48.9	0.042572888554744
0	981	49	0.042572888554744
0	983	49.1	0.042572888554744
0	985	49.2	0.042572888554744
0	986	49.281717235	0.042572888554744
0	987	49.3	0.042572888554744
0	989	49.4	0.042572888554744
0	991	49.5	0.042572888554744
0	993	49.6	0.042572888554744
0	995	49.7	0.042572888554744
0	997	49.8	0.042572888554744
0	999	49.9	0.042572888554744
0	1000	49.940148652	0.042572888554744
0	1001	50	0.042572888554744
0	1003	50.1	0.042572888554744
0	1005	50.2	0.042572888554744
0	1007	50.3	0.042572888554744
0	1009	50.4	0.042572888554744
0	1011	50.5	0.042572888554744
0	1012	50.563993645	0.042572888554744
0	1013	50.6	0.042572888554744
0	1016	50.7	0.042572888554744
0	1018	50.8	0.042147159669196
0	1018	50.8	0.042147159669196
0	1020	50.9	0.042147159669196
0	1022	51	0.042147159669196
0	1024	51.1	0.042147159669196
0	1026	51.2	0.042147159669196
0	1026	51.277427599	0.042147159669196
0	1028	51.3	0.042147159669196
0	1030	51.4	0.042147159669196
0	1032	51.5	0.042147159669196
0	1034	51.6	0.042147159669196
0	1036	51.7	0.042147159669196
0	1038	51.8	0.042147159669196
0	1038	51.845550658	0.042147159669196
0	1040	51.9	0.042147159669196
0	1042	52	0.042147159669196
0	1044	52.1	0.042147159669196
0	1046	52.2	0.042147159669196
0	1048	52.3	0.041725688072504
0	1048	52.3	0.041725688072504
0	1048	52.367297386	0.041725688072504
0	1050	52.4	0.041725688072504
0	1052	52.5	0.041725688072504
0	1054	52.6	0.041725688072504
0	1056	52.7	0.041725688072504
0	1058	52.8	0.041725688072504
0	1058	52.884129715	0.041725688072504
0	1060	52.9	0.041725688072504
0	1062	53	0.041725688072504
0	1064	53.1	0.041725688072504
0	1066	53.2	0.041725688072504
0	1068	53.3	0.041725688072504
0	1070	53.4	0.041725688072504
0	1070	53.420838655	0.041725688072504
0	1072	53.5	0.041725688072504
0	1074	53.6	0.041725688072504
0	1076	53.7	0.041308431191779
0	1076	53.7	0.041308431191779
0	1078	53.8	0.041308431191779
0	1080	53.9	0.041308431191779
0	1080	53.970594454	0.041308431191779
0	1082	54	0.041308431191779
0	1084	54.1	0.041308431191779
0	1086	54.2	0.041308431191779
0	1088	54.3	0.041308431191779
0	1090	54.4	0.041308431191779
0	1092	54.5	0.041308431191779
0	1092	54.57080875	0.041308431191779
0	1094	54.6	0.041308431191779
0	1096	54.7	0.041308431191779
0	1098	54.8	0.041308431191779
0	1100	54.9	0.041308431191779
0	1102	55	0.041308431191779
0	1102	55.018445974	0.041308431191779
0	1104	55.1	0.040895346879862
0	1104	55.1	0.040895346879862
0	1106	55.2	0.040895346879862
0	1108	55.3	0.040895346879862
0	1110	55.4	0.040895346879862
0	1110	55.465325485	0.040895346879862
0	1112	55.5	0.040895346879862
0	1114	55.6	0.040895346879862
0	1116	55.7	0.040895346879862
0	1118	55.8	0.040895346879862
0	1120	55.9	0.040895346879862
0	1122	56	0.040895346879862
0	1122	56.011113667	0.040895346879862
0	1124	56.1	0.040895346879862
0	1126	56.2	0.040895346879862
0	1128	56.3	0.040895346879862
0	1130	56.4	0.040895346879862
0	1133	56.5	0.040895346879862
0	1135	56.6	0.040895346879862
0	1135	56.608554946	0.040895346879862
0	1138	56.7	0.040895346879862
0	1140	56.769634267061	0.040895346879862
0	1142	56.869634267061	0.040895346879862
0	1144	56.969634267061	0.040895346879862
0	1146	57.069634267061	0.040895346879862
0	1148	57.169634267061	0.040895346879862
0	1149	57.204284365	0.040895346879862
0	1150	57.269634267061	0.040895346879862
0	1152	57.369634267061	0.040895346879862
0	1154	57.469634267061	0.040895346879862
0	1156	57.569634267061	0.040895346879862
0	1158	57.669634267061	0.040895346879862
0	1160	57.769634267061	0.040895346879862
0	1162	57.869634267061	0.040895346879862
0	1163	57.887984161	0.040486393411063
0	1163	57.887984161	0.040486393411063
0	1164	57.969634267061	0.040486393411063
0	1166	58.069634267061	0.040486393411063
0	1168	58.169634267061	0.040486393411063
0	1170	58.269634267061	0.040486393411063
0	1172	58.369634267061	0.040486393411063
0	1174	58.469634267061	0.040486393411063
0	1176	58.569634267061	0.040486393411063
0	1177	58.605297226	0.040486393411063
0	1178	58.669634267061	0.040486393411063
0	1180	58.769634267061	0.040486393411063
0	1182	58.869634267061	0.040486393411063
0	1184	58.969634267061	0.040486393411063
0	1186	59.069634267061	0.040486393411063
0	1188	59.169634267061	0.040486393411063
0	1190	59.269634267061	0.040486393411063
0	1191	59.316747178	0.040486393411063
0	1192	59.369634267061	0.040081529476952
0	1192	59.369634267061	0.040081529476952
0	1194	59.469634267061	0.040081529476952
0	1196	59.569634267061	0.040081529476952
0	1198	59.669634267061	0.040081529476952
0	1200	59.769634267061	0.040081529476952
0	1202	59.869634267061	0.040081529476952
0	1204	59.969634267061	0.040081529476952
0	1206	60.069634267061	0.040081529476952
0	1207	60.090796876	0.040081529476952
0	1208	60.169634267061	0.040081529476952
0	1210	60.269634267061	0.040081529476952
0	1212	60.369634267061	0.040081529476952
0	1214	60.469634267061	0.040081529476952
0	1216	60.569634267061	0.040081529476952
0	1217	60.597425533	0.040081529476952
0	1218	60.669634267061	0.040081529476952
0	1220	60.769634267061	0.040081529476952
0	1222	60.869634267061	0.039680714182183
0	1222	60.869634267061	0.039680714182183
0	1224	60.969634267061	0.039680714182183
0	1226	61.069634267061	0.039680714182183
0	1227	61.116752776	0.039680714182183
0	1228	61.169634267061	0.039680714182183
0	1230	61.269634267061	0.039680714182183
0	1232	61.369634267061	0.039680714182183
0	1234	61.469634267061	0.039680714182183
0	1236	61.569634267061	0.039680714182183
0	1237	61.661585488	0.039680714182183
0	1238	61.669634267061	0.039680714182183
0	1240	61.769634267061	0.039680714182183
0	1242	61.869634267061	0.039680714182183
0	1244	61.969634267061	0.039680714182183
0	1246	62.069634267061	0.039680714182183
0	1247	62.156715157	0.039680714182183
0	1248	62.169634267061	0.039680714182183
0	1250	62.269634267061	0.039283907040361
0	1250	62.269634267061	0.039283907040361
0	1252	62.369634267061	0.039283907040361
0	1254	62.469634267061	0.039283907040361
0	1256	62.569634267061	0.039283907040361
0	1258	62.669634267061	0.039283907040361
0	1260	62.769634267061	0.039283907040361
0	1261	62.789713381	0.039283907040361
0	1262	62.869634267061	0.039283907040361
0	1264	62.969634267061	0.039283907040361
0	1266	63.069634267061	0.039283907040361
0	1268	63.169634267061	0.039283907040361
0	1270	63.269634267061	0.039283907040361
0	1271	63.349653808	0.039283907040361
0	1272	63.369634267061	0.039283907040361
0	1274	63.469634267061	0.039283907040361
0	1276	63.569634267061	0.039283907040361
0	1278	63.669634267061	0.039283907040361
0	1280	63.769634267061	0.038891067969957
0	1280	63.769634267061	0.038891067969957
0	1282	63.869634267061	0.038891067969957
0	1284	63.969634267061	0.038891067969957
0	1285	64.027942669	0.038891067969957
0	1286	64.069634267061	0.038891067969957
0	1288	64.169634267061	0.038891067969957
0	1290	64.269634267061	0.038891067969957
0	1292	64.369634267061	0.038891067969957
0	1294	64.469634267061	0.038891067969957
0	1296	64.569634267061	0.038891067969957
0	1298	64.669634267061	0.038891067969957
0	1300	64.769634267061	0.038891067969957
0	1301	64.804665283	0.038891067969957
0	1302	64.869634267061	0.038891067969957
0	1304	64.969634267061	0.038891067969957
0	1306	65.069634267061	0.038891067969957
0	1308	65.169634267061	0.038891067969957
0	1310	65.269634267061	0.038502157290258
0	1310	65.269634267061	0.038502157290258
0	1312	65.369634267061	0.038502157290258
0	1313	65.447487487	0.038502157290258
0	1314	65.469634267061	0.038502157290258
0	1316	65.569634267061	0.038502157290258
0	1318	65.669634267061	0.038502157290258
0	1320	65.769634267061	0.038502157290258
0	1322	65.869634267061	0.038502157290258
0	1324	65.969634267061	0.038502157290258
0	1325	66.017342203	0.038502157290258
0	1326	66.069634267061	0.038502157290258
0	1328	66.169634267061	0.038502157290258
0	1330	66.269634267061	0.038502157290258
0	1332	66.369634267061	0.038502157290258
0	1334	66.469634267061	0.038502157290258
0	1335	66.53849092	0.038502157290258
0	1336	66.569634267061	0.038502157290258
0	1338	66.669634267061	0.038117135717355
0	1338	66.669634267061	0.038117135717355
0	1340	66.769634267061	0.038117135717355
0	1342	66.869634267061	0.038117135717355
0	1344	66.969634267061	0.038117135717355
0	1345	67.033664848	0.038117135717355
0	1346	67.069634267061	0.038117135717355
0	1348	67.169634267061	0.038117135717355
0	1350	67.269634267061	0.038117135717355
0	1352	67.369634267061	0.038117135717355
0	1354	67.469634267061	0.038117135717355
0	1356	67.569634267061	0.038117135717355
0	1358	67.669634267061	0.038117135717355
0	1359	67.753924054	0.038117135717355
0	1360	67.769634267061	0.038117135717355
0	1362	67.869634267061	0.038117135717355
0	1364	67.969634267061	0.038117135717355
0	1366	68.069634267061	0.038117135717355
0	1368	68.169634267061	0.037735964360182
0	1368	68.169634267061	0.037735964360182
0	1370	68.269634267061	0.037735964360182
0	1372	68.369634267061	0.037735964360182
0	1374	68.469634267061	0.037735964360182
0	1375	68.510441473	0.037735964360182
0	1376	68.569634267061	0.037735964360182
0	1378	68.669634267061	0.037735964360182
0	1380	68.769634267061	0.037735964360182
0	1382	68.869634267061	0.037735964360182
0	1384	68.969634267061	0.037735964360182
0	1386	69.069634267061	0.037735964360182
0	1388	69.169634267061	0.037735964360182
0	1390	69.269634267061	0.037735964360182
0	1391	69.325720072	0.037735964360182
0	1392	69.369634267061	0.037735964360182
0	1394	69.469634267061	0.037735964360182
0	1396	69.569634267061	0.037735964360182
0	1398	69.669634267061	0.03735860471658
0	1398	69.669634267061	0.03735860471658
0	1400	69.769634267061	0.03735860471658
0	1402	69.869634267061	0.03735860471658
0	1404	69.969634267061	0.03735860471658
0	1405	70.015233895	0.03735860471658
0	1406	70.069634267061	0.03735860471658
0	1408	70.169634267061	0.03735860471658
0	1410	70.269634267061	0.03735860471658
0	1412	70.369634267061	0.03735860471658
0	1414	70.469634267061	0.03735860471658
0	1416	70.569634267061	0.03735860471658
0	1418	70.669634267061	0.03735860471658
0	1419	70.735487656	0.03735860471658
0	1420	70.769634267061	0.03735860471658
0	1422	70.869634267061	0.03735860471658
0	1424	70.969634267061	0.03735860471658
0	1426	71.069634267061	0.03735860471658
0	1428	71.169634267061	0.036985018669414
0	1428	71.169634267061	0.036985018669414
0	1430	71.269634267061	0.036985018669414
0	1432	71.369634267061	0.036985018669414
0	1434	71.469634267061	0.036985018669414
0	1435	71.510329513	0.036985018669414
0	1436	71.569634267061	0.036985018669414
0	1438	71.669634267061	0.036985018669414
0	1440	71.769634267061	0.036985018669414
0	1442	71.869634267061	0.036985018669414
0	1444	71.969634267061	0.036985018669414
0	1446	72.069634267061	0.036985018669414
0	1448	72.169634267061	0.036985018669414
0	1449	72.189029404	0.036985018669414
0	1450	72.269634267061	0.036985018669414
0	1452	72.369634267061	0.036985018669414
0	1454	72.469634267061	0.036985018669414
0	1456	72.569634267061	0.036985018669414
0	1458	72.627836814492	0.03661516848272
0	1458	72.627836814492	0.03661516848272
0	1459	72.669634267061	0.036782358292996
0	1461	72.724044693812	0.037
0	1462	72.769634267061	0.037182358292996
0	1464	72.849044693812	0.0375
0	1465	72.869634267061	0.037582358292996
0	1467	72.969634267061	0.037982358292996
0	1468	72.974044693812	0.038
0	1469	73.023787738	0.038198972176752
0	1470	73.069634267061	0.038382358292996
0	1472	73.099044693812	0.0385
0	1473	73.169634267061	0.038782358292996
0	1475	73.224044693812	0.039
0	1476	73.269634267061	0.039182358292996
0	1478	73.349044693812	0.0395
0	1479	73.369634267061	0.039582358292996
0	1481	73.469634267061	0.039982358292996
0	1482	73.474044693812	0.04
0	1484	73.569634267061	0.040382358292996
0	1486	73.599044693812	0.0405
0	1487	73.669634267061	0.040782358292996
0	1489	73.724044693812	0.041
0	1490	73.769634267061	0.040770534710066
0	1490	73.769634267061	0.040770534710066
0	1491	73.810875034	0.040935497777822
0	1492	73.849044693812	0.0415
0	1493	73.869634267061	0.041582358292996
0	1495	73.969634267061	0.041982358292996
0	1496	73.974044693812	0.042
0	1498	74.069634267061	0.042382358292996
0	1500	74.099044693812	0.0425
0	1501	74.169634267061	0.042782358292996
0	1503	74.224044693812	0.043
0	1504	74.269634267061	0.043182358292996
0	1506	74.349044693812	0.0435
0	1507	74.369634267061	0.043582358292996
0	1508	74.396100709	0.043688224060752
0	1509	74.469634267061	0.043982358292996
0	1510	74.474044693812	0.044
0	1512	74.569634267061	0.044382358292996
0	1514	74.599044693812	0.0445
0	1515	74.669634267061	0.044782358292996
0	1517	74.724044693812	0.045
0	1518	74.769634267061	0.045182358292996
0	1520	74.849044693812	0.045045
0	1520	74.849044693812	0.045045
0	1520	74.856156754	0.045073448240752
0	1521	74.869634267061	0.045127358292996
0	1523	74.962794693812	0.0455
0	1524	74.969634267061	0.045527358292996
0	1526	75.069634267061	0.045927358292996
0	1528	75.087794693812	0.046
0	1529	75.169634267061	0.046327358292996
0	1531	75.212794693812	0.0465
0	1532	75.269634267061	0.046727358292996
0	1533	75.311740117	0.046895781692752
0	1534	75.337794693812	0.047
0	1535	75.369634267061	0.047127358292996
0	1537	75.462794693812	0.0475
0	1538	75.469634267061	0.047527358292996
0	1540	75.569634267061	0.047927358292996
0	1542	75.587794693812	0.048
0	1543	75.669634267061	0.048327358292996
0	1545	75.712794693812	0.0485
0	1546	75.769634267061	0.048727358292996
0	1548	75.837794693812	0.049
0	1549	75.869634267061	0.049127358292996
0	1550	75.909361432	0.049286266952752
0	1551	75.962794693812	0.0495
0	1552	75.969634267061	0.049527358292996
0	1554	76.069634267061	0.049927358292996
0	1556	76.087794693812	0.05
0	1557	76.169634267061	0.05
0	1559	76.269634267061	0.05
0	1561	76.369634267061	0.05
0	1563	76.469634267061	0.05
0	1564	76.56726406	0.05
0	1565	76.569634267061	0.05
0	1567	76.669634267061	0.05
0	1569	76.769634267061	0.05
0	1571	76.869634267061	0.05
0	1573	76.969634267061	0.05
0	1574	77.069211364	0.05
0	1575	77.069634267061	0.05
0	1577	77.169634267061	0.05
0	1579	77.269634267061	0.05
0	1581	77.369634267061	0.05
0	1583	77.469634267061	0.05
0	1585	77.569634267061	0.05
0	1586	77.641793551	0.05
0	1587	77.669634267061	0.05
0	1589	77.769634267061	0.05
0	1591	77.869634267061	0.05
0	1593	77.969634267061	0.05
0	1595	78.069634267061	0.05
0	1597	78.169634267061	0.05
0	1597	78.180842719	0.05
0	1599	78.269634267061	0.05
0	1601	78.369634267061	0.05
0	1603	78.469634267061	0.05
0	1605	78.569634267061	0.05
0	1606	78.651806323	0.05
0	1607	78.669634267061	0.05
0	1609	78.769634267061	0.05
0	1611	78.869634267061	0.05
0	1613	78.969634267061	0.05
0	1615	79.069634267061	0.05
0	1617	79.169634267061	0.05
0	1617	79.174002298	0.05
0	1619	79.269634267061	0.05
0	1621	79.369634267061	0.05
0	1623	79.469634267061	0.05
0	1625	79.569634267061	0.05
0	1627	79.669634267061	0.05
0	1627	79.673723344	0.05
0	1629	79.769634267061	0.05
0	1631	79.869634267061	0.05
0	1633	79.969634267061	0.05
0	1635	80.069634267061	0.05
0	1637	80.169634267061	0.05
0	1639	80.269634267061	0.05
0	1641	80.369634267061	0.05
0	1642	80.4394123	0.05
0	1643	80.469634267061	0.05
0	1645	80.569634267061	0.05
0	1647	80.669634267061	0.05
0	1649	80.769634267061	0.05
0	1651	80.869634267061	0.05
0	1653	80.969634267061	0.05
0	1655	81.069634267061	0.05
0	1657	81.169634267061	0.05
0	1659	81.269634267061	0.05
0	1660	81.292090951	0.05
0	1661	81.369634267061	0.05
0	1663	81.469634267061	0.05
0	1665	81.569634267061	0.05
0	1668	81.669634267061	0.05
0	1670	81.769634267061	0.05
0	1672	81.869634267061	0.05
0	1676	81.969634267061	0.05
0	1678	82.069634267061	0.05
0	1680	82.169634267061	0.05
0	1681	82.204243285	0.05
0	1682	82.269634267061	0.05
0	1684	82.369634267061	0.05
0	1686	82.469634267061	0.05
0	1688	82.569634267061	0.05
0	1690	82.669634267061	0.05
0	1692	82.769634267061	0.05
0	1694	82.869634267061	0.05
0	1695	82.915483489	0.05
0	1696	82.969634267061	0.0495
0	1696	82.969634267061	0.0495
0	1698	83.069634267061	0.0499
0	1700	83.169634267061	0.05
0	1702	83.269634267061	0.05
0	1704	83.369634267061	0.05
0	1706	83.469634267061	0.05
0	1707	83.503281115	0.05
0	1708	83.569634267061	0.05
0	1710	83.669634267061	0.05
0	1712	83.769634267061	0.05
0	1714	83.869634267061	0.05
0	1716	83.969634267061	0.05
0	1718	84.069634267061	0.05
0	1720	84.169634267061	0.05
0	1721	84.18659122	0.05
0	1722	84.269634267061	0.05
0	1724	84.369634267061	0.05
0	1726	84.469634267061	0.0495
0	1726	84.469634267061	0.0495
0	1728	84.569634267061	0.0499
0	1730	84.669634267061	0.05
0	1731	84.720483778	0.05
0	1732	84.769634267061	0.05
0	1734	84.869634267061	0.05
0	1736	84.969634267061	0.05
0	1738	85.069634267061	0.05
0	1740	85.169634267061	0.05
0	1742	85.269634267061	0.05
0	1743	85.366479481	0.05
0	1744	85.369634267061	0.05
0	1746	85.469634267061	0.05
0	1748	85.569634267061	0.05
0	1750	85.669634267061	0.05
0	1752	85.769634267061	0.05
0	1754	85.869634267061	0.05
0	1756	85.969634267061	0.0495
0	1756	85.969634267061	0.0495
0	1757	85.998145675	0.049614045631756
0	1758	86.069634267061	0.0499
0	1760	86.169634267061	0.05
0	1762	86.269634267061	0.05
0	1764	86.369634267061	0.05
0	1766	86.469634267061	0.05
0	1767	86.562346645	0.05
0	1768	86.569634267061	0.05
0	1770	86.669634267061	0.05
0	1773	86.769634267061	0.05
0	1775	86.869634267061	0.05
0	1777	86.969634267061	0.05
0	1779	87.069634267061	0.05
0	1780	87.135537016	0.05
0	1781	87.169634267061	0.05
0	1783	87.269634267061	0.05
0	1785	87.369634267061	0.05
0	1787	87.432206913938	0.05
0	1788	87.469634267061	0.05
0	1790	87.569634267061	0.05
0	1792	87.669634267061	0.05
0	1792	87.694587679	0.05
0	1794	87.769634267061	0.05
0	1796	87.869634267061	0.05
0	1798	87.969634267061	0.05
0	1800	88.069634267061	0.05
0	1802	88.169634267061	0.05
0	1804	88.269634267061	0.05
0	1804	88.298659192	0.05
0	1806	88.369634267061	0.05
0	1808	88.469634267061	0.05
0	1810	88.569634267061	0.05
0	1812	88.669634267061	0.05
0	1814	88.769634267061	0.0495
0	1814	88.769634267061	0.0495
0	1816	88.869634267061	0.0495
0	1818	88.969634267061	0.0495
0	1818	88.973597728	0.0495
0	1820	89.069634267061	0.0495
0	1822	89.169634267061	0.0495
0	1824	89.269634267061	0.0495
0	1826	89.369634267061	0.0495
0	1828	89.469634267061	0.0495
0	1829	89.547872485	0.0495
0	1830	89.569634267061	0.0495
0	1832	89.669634267061	0.0495
0	1834	89.769634267061	0.0495
0	1836	89.869634267061	0.0495
0	1838	89.969634267061	0.0495
0	1840	90.069634267061	0.0495
0	1842	90.169634267061	0.0495
0	1844	90.269634267061	0.049005
0	1844	90.269634267061	0.049005
0	1844	90.29627416	0.049005
0	1846	90.369634267061	0.049005
0	1848	90.469634267061	0.049005
0	1850	90.569634267061	0.049005
0	1852	90.669634267061	0.049005
0	1854	90.769634267061	0.049005
0	1856	90.869634267061	0.049005
0	1858	90.969634267061	0.049005
0	1860	91.069634267061	0.049005
0	1860	91.104575893	0.049005
0	1862	91.169634267061	0.049005
0	1864	91.269634267061	0.049005
0	1866	91.369634267061	0.049005
0	1868	91.469634267061	0.049005
0	1870	91.569634267061	0.049005
0	1872	91.669634267061	0.049005
0	1874	91.769634267061	0.04851495
0	1874	91.769634267061	0.04851495
0	1876	91.869634267061	0.04851495
0	1878	91.969634267061	0.04851495
0	1880	92.069634267061	0.04851495
0	1881	92.155422421	0.04851495
0	1882	92.169634267061	0.04851495
0	1884	92.269634267061	0.04851495
0	1886	92.369634267061	0.04851495
0	1888	92.469634267061	0.04851495
0	1890	92.569634267061	0.04851495
0	1892	92.669634267061	0.04851495
0	1894	92.769634267061	0.04851495
0	1896	92.869634267061	0.04851495
0	1898	92.969634267061	0.04851495
0	1900	93.069634267061	0.04851495
0	1902	93.169634267061	0.04851495
0	1903	93.255140419	0.04851495
0	1904	93.269634267061	0.0480298005
0	1904	93.269634267061	0.0480298005
0	1906	93.369634267061	0.0480298005
0	1908	93.469634267061	0.0480298005
0	1910	93.569634267061	0.0480298005
0	1912	93.669634267061	0.0480298005
0	1914	93.769634267061	0.0480298005
0	1916	93.869634267061	0.0480298005
0	1918	93.969634267061	0.0480298005
0	1918	93.99381466	0.0480298005
0	1920	94.069634267061	0.0480298005
0	1922	94.169634267061	0.0480298005
0	1924	94.269634267061	0.0480298005
0	1926	94.369634267061	0.0480298005
0	1928	94.469634267061	0.0480298005
0	1930	94.569634267061	0.0480298005
0	1932	94.669634267061	0.0480298005
0	1934	94.769634267061	0.0480298005
0	1934	94.802504788	0.0480298005
0	1936	94.869634267061	0.0480298005
0	1938	94.969634267061	0.0480298005
0	1940	95.069634267061	0.0480298005
0	1942	95.150851112498	0.0480298005
0	1943	95.169634267061	0.048104933118252
0	1945	95.268400987498	0.0485
0	1946	95.269634267061	0.048504933118252
0	1948	95.369634267061	0.048904933118252
0	1949	95.393400987498	0.049
0	1951	95.469634267061	0.049304933118252
0	1953	95.518400987498	0.0495
0	1954	95.569634267061	0.049704933118252
0	1954	95.583981061	0.049762320294008
0	1956	95.643400987498	0.05
0	1957	95.669634267061	0.05
0	1959	95.769634267061	0.05
0	1961	95.869634267061	0.05
0	1963	95.969634267061	0.05
0	1965	96.069634267061	0.05
0	1967	96.169634267061	0.05
0	1969	96.269634267061	0.05
0	1971	96.369634267061	0.05
0	1972	96.447255376	0.05
0	1973	96.469634267061	0.05
0	1975	96.569634267061	0.05
0	1977	96.669634267061	0.05
0	1979	96.769634267061	0.05
0	1981	96.869634267061	0.05
0	1983	96.969634267061	0.05
0	1985	97.069634267061	0.05
0	1987	97.169634267061	0.05
0	1987	97.186961296	0.05
0	1989	97.269634267061	0.05
0	1991	97.369634267061	0.05
0	1993	97.469634267061	0.05
0	1995	97.569634267061	0.05
0	1997	97.669634267061	0.05
0	1999	97.769634267061	0.05
0	2001	97.869634267061	0.05
0	2003	97.969634267061	0.05
0	2004	98.0367802	0.05
0	2005	98.069634267061	0.05
0	2007	98.169634267061	0.05
0	2009	98.269634267061	0.05
0	2011	98.369634267061	0.05
0	2013	98.469634267061	0.05
0	2015	98.569634267061	0.05
0	2017	98.669634267061	0.05
0	2019	98.769634267061	0.05
0	2020	98.835973036	0.05
0	2021	98.869634267061	0.05
0	2023	98.969634267061	0.05
0	2025	99.069634267061	0.05
0	2027	99.169634267061	0.05
0	2029	99.269634267061	0.05
0	2031	99.369634267061	0.05
0	2032	99.427463158	0.05
0	2033	99.469634267061	0.05
0	2035	99.569634267061	0.05
0	2037	99.669634267061	0.05
0	2039	99.769634267061	0.05
0	2041	99.869634267061	0.05
0	2043	99.969634267061	0.05
0	2044	100.024519882	0.05
0	2045	100.069634267061	0.05
0	2047	100.169634267061	0.05
0	2049	100.269634267061	0.05
0	2051	100.369634267061	0.05
0	2053	100.469634267061	0.05
0	2053	100.488694789	0.05
0	2055	100.569634267061	0.05
0	2057	100.669634267061	0.05
0	2059	100.769634267061	0.05
0	2061	100.869634267061	0.05
0	2063	100.969634267061	0.05
0	2065	101.069634267061	0.05
0	2065	101.075011972	0.05
0	2067	101.169634267061	0.05
0	2069	101.269634267061	0.05
0	2071	101.369634267061	0.05
0	2073	101.469634267061	0.05
0	2074	101.557011142	0.05
0	2075	101.569634267061	0.05
0	2077	101.669634267061	0.05
0	2079	101.769634267061	0.05
0	2081	101.869634267061	0.05
0	2083	101.969634267061	0.05
0	2085	102.069634267061	0.05
0	2087	102.169634267061	0.05
0	2088	102.259416706	0.05
0	2089	102.269634267061	0.05
0	2091	102.369634267061	0.05
0	2093	102.469634267061	0.05
0	2095	102.569634267061	0.05
0	2097	102.669634267061	0.05
0	2099	102.769634267061	0.05
0	2101	102.869634267061	0.05
0	2102	102.923416624	0.05
0	2103	102.969634267061	0.05
0	2105	103.069634267061	0.05
0	2107	103.169634267061	0.05
0	2109	103.269634267061	0.05
0	2111	103.369634267061	0.05
0	2113	103.469634267061	0.05
0	2114	103.531575337	0.05
0	2115	103.569634267061	0.05
0	2117	103.669634267061	0.05
0	2119	103.769634267061	0.05
0	2121	103.869634267061	0.05
0	2123	103.969634267061	0.05
0	2125	104.069634267061	0.05
0	2125	104.111113813	0.05
0	2127	104.169634267061	0.05
0	2129	104.269634267061	0.05
0	2131	104.369634267061	0.05
0	2133	104.469634267061	0.05
0	2135	104.569634267061	0.05
0	2137	104.669634267061	0.05
0	2139	104.769634267061	0.05
0	2141	104.869634267061	0.05
0	2143	104.969634267061	0.05
0	2143	105.007719181	0.0495
0	2143	105.007719181	0.0495
0	2145	105.069634267061	0.049747660344244
0	2147	105.169634267061	0.05
0	2149	105.269634267061	0.05
0	2151	105.369634267061	0.05
0	2153	105.469634267061	0.05
0	2155	105.569634267061	0.05
0	2157	105.669634267061	0.05
0	2157	105.68319409	0.05
0	2159	105.769634267061	0.05
0	2161	105.869634267061	0.05
0	2163	105.969634267061	0.05
0	2165	106.069634267061	0.05
0	2167	106.169634267061	0.05
0	2169	106.269634267061	0.05
0	2171	106.369634267061	0.05
0	2172	106.448232898	0.05
0	2173	106.469634267061	0.05
0	2175	106.569634267061	0.05
0	2177	106.669634267061	0.05
0	2179	106.769634267061	0.05
0	2181	106.869634267061	0.05
0	2183	106.969634267061	0.05
0	2183	106.997791627	0.05
0	2185	107.069634267061	0.05
0	2187	107.169634267061	0.05
0	2189	107.269634267061	0.05
0	2191	107.369634267061	0.05
0	2193	107.469634267061	0.05
0	2193	107.504218306	0.05
0	2195	107.569634267061	0.05
0	2197	107.669634267061	0.05
0	2199	107.769634267061	0.05
0	2201	107.869634267061	0.05
0	2203	107.969634267061	0.05
0	2203	107.977810417	0.05
0	2205	108.069634267061	0.05
0	2207	108.169634267061	0.05
0	2209	108.269634267061	0.05
0	2211	108.369634267061	0.05
0	2213	108.469634267061	0.05
0	2214	108.540791884	0.05
0	2215	108.569634267061	0.05
0	2217	108.669634267061	0.05
0	2219	108.769634267061	0.05
0	2221	108.869634267061	0.05
0	2223	108.969634267061	0.05
0	2225	109.069634267061	0.05
0	2227	109.169634267061	0.05
0	2228	109.265215306	0.05
0	2229	109.269634267061	0.05
0	2231	109.369634267061	0.05
0	2233	109.469634267061	0.05
0	2235	109.569634267061	0.05
0	2237	109.669634267061	0.05
0	2239	109.769634267061	0.05
0	2239	109.799100391	0.05
0	2241	109.869634267061	0.05
0	2243	109.969634267061	0.05
0	2245	110.023505304117	0.05
0	2246	110.069634267061	0.05
0	2248	110.169634267061	0.05
0	2250	110.269634267061	0.05
0	2251	110.351242408	0.05
0	2252	110.369634267061	0.05
0	2254	110.469634267061	0.05
0	2256	110.569634267061	0.05
0	2258	110.669634267061	0.05
0	2260	110.769634267061	0.0495
0	2260	110.769634267061	0.0495
0	2262	110.869634267061	0.0495
0	2264	110.969634267061	0.0495
0	2264	111.001815454	0.0495
0	2266	111.069634267061	0.0495
0	2268	111.169634267061	0.0495
0	2270	111.269634267061	0.0495
0	2272	111.369634267061	0.0495
0	2273	111.468124735	0.0495
0	2274	111.469634267061	0.0495
0	2276	111.569634267061	0.0495
0	2278	111.669634267061	0.0495
0	2280	111.769634267061	0.0495
0	2282	111.869634267061	0.0495
0	2284	111.969634267061	0.0495
0	2284	112.008912097	0.0495
0	2286	112.069634267061	0.0495
0	2288	112.169634267061	0.049005
0	2288	112.169634267061	0.049005
0	2290	112.269634267061	0.049005
0	2292	112.369634267061	0.049005
0	2294	112.469634267061	0.049005
0	2295	112.566708871	0.049005
0	2296	112.569634267061	0.049005
0	2298	112.669634267061	0.049005
0	2300	112.769634267061	0.049005
0	2302	112.869634267061	0.049005
0	2304	112.969634267061	0.049005
0	2306	113.069634267061	0.049005
0	2308	113.169634267061	0.049005
0	2308	113.190086236	0.049005
0	2310	113.269634267061	0.049005
0	2312	113.369634267061	0.049005
0	2314	113.469634267061	0.049005
0	2316	113.569634267061	0.049005
0	2318	113.669634267061	0.04851495
0	2318	113.669634267061	0.04851495
0	2320	113.769634267061	0.04851495
0	2321	113.840764621	0.04851495
0	2322	113.869634267061	0.04851495
0	2324	113.969634267061	0.04851495
0	2326	114.069634267061	0.04851495
0	2328	114.169634267061	0.04851495
0	2330	114.269634267061	0.04851495
0	2330	114.30100171	0.04851495
0	2332	114.369634267061	0.04851495
0	2334	114.469634267061	0.04851495
0	2336	114.569634267061	0.04851495
0	2338	114.669634267061	0.04851495
0	2340	114.769634267061	0.04851495
0	2341	114.835301407	0.04851495
0	2342	114.869634267061	0.04851495
0	2344	114.969634267061	0.04851495
0	2346	115.069634267061	0.0480298005
0	2346	115.069634267061	0.0480298005
0	2348	115.169634267061	0.0480298005
0	2350	115.269634267061	0.0480298005
0	2352	115.369634267061	0.0480298005
0	2352	115.395072172	0.0480298005
0	2354	115.469634267061	0.0480298005
0	2356	115.569634267061	0.0480298005
0	2358	115.669634267061	0.0480298005
0	2360	115.769634267061	0.0480298005
0	2361	115.836956818	0.0480298005
0	2362	115.869634267061	0.0480298005
0	2364	115.969634267061	0.0480298005
0	2366	116.069634267061	0.0480298005
0	2368	116.169634267061	0.0480298005
0	2370	116.269634267061	0.0480298005
0	2372	116.369634267061	0.0480298005
0	2373	116.453952568	0.0480298005
0	2374	116.469634267061	0.047549502495
0	2374	116.469634267061	0.047549502495
0	2376	116.569634267061	0.047549502495
0	2378	116.669634267061	0.047549502495
0	2380	116.769634267061	0.047549502495
0	2382	116.869634267061	0.047549502495
0	2384	116.969634267061	0.047549502495
0	2386	117.069634267061	0.047549502495
0	2386	117.102684421	0.047549502495
0	2388	117.169634267061	0.047549502495
0	2390	117.269634267061	0.047549502495
0	2392	117.369634267061	0.047549502495
0	2394	117.469634267061	0.047549502495
0	2396	117.569634267061	0.047549502495
0	2397	117.658917187	0.047549502495
0	2398	117.669634267061	0.047549502495
0	2400	117.769634267061	0.047549502495
0	2402	117.869634267061	0.047549502495
0	2404	117.969634267061	0.04707400747005
0	2404	117.969634267061	0.04707400747005
0	2406	118.069634267061	0.04707400747005
0	2408	118.169634267061	0.04707400747005
0	2410	118.269634267061	0.04707400747005
0	2410	118.28691316	0.04707400747005
0	2412	118.369634267061	0.04707400747005
0	2414	118.469634267061	0.04707400747005
0	2416	118.569634267061	0.04707400747005
0	2418	118.669634267061	0.04707400747005
0	2419	118.769270218	0.04707400747005
0	2420	118.769634267061	0.04707400747005
0	2422	118.869634267061	0.04707400747005
0	2424	118.969634267061	0.04707400747005
0	2426	119.069634267061	0.04707400747005
0	2428	119.169634267061	0.04707400747005
0	2430	119.269634267061	0.04707400747005
0	2432	119.369634267061	0.04707400747005
0	2434	119.469634267061	0.04660326739535
0	2434	119.469634267061	0.04660326739535
0	2434	119.492286853	0.04660326739535
0	2436	119.569634267061	0.04660326739535
0	2438	119.669634267061	0.04660326739535
0	2440	119.769634267061	0.04660326739535
0	2442	119.869634267061	0.04660326739535
0	2444	119.969634267061	0.04660326739535
0	2445	119.975293298944	0.04660326739535
0	2447	120.075293298944	0.04660326739535
0	2448	120.155172001	0.04660326739535
0	2449	120.175293298944	0.04660326739535
0	2451	120.275293298944	0.04660326739535
0	2453	120.375293298944	0.04660326739535
0	2455	120.475293298944	0.04660326739535
0	2457	120.575293298944	0.04660326739535
0	2459	120.675293298944	0.04660326739535
0	2459	120.697113841	0.04660326739535
0	2461	120.775293298944	0.04660326739535
0	2463	120.875293298944	0.04660326739535
0	2465	120.975293298944	0.04660326739535
0	2467	121.075293298944	0.04660326739535
0	2469	121.175293298944	0.04660326739535
0	2471	121.275293298944	0.04660326739535
0	2471	121.279268941	0.04660326739535
0	2473	121.375293298944	0.04660326739535
0	2475	121.475293298944	0.04660326739535
0	2477	121.575293298944	0.04660326739535
0	2479	121.675293298944	0.04660326739535
0	2481	121.775293298944	0.04660326739535
0	2483	121.875293298944	0.04660326739535
0	2483	121.911523936	0.04660326739535
0	2485	121.975293298944	0.04660326739535
0	2487	122.075293298944	0.04660326739535
0	2489	122.175293298944	0.04660326739535
0	2491	122.275293298944	0.04660326739535
0	2493	122.375293298944	0.04660326739535
0	2495	122.475293298944	0.04660326739535
0	2497	122.575293298944	0.04660326739535
0	2498	122.641387795	0.04660326739535
0	2499	122.675293298944	0.04660326739535
0	2501	122.775293298944	0.04660326739535
0	2503	122.875293298944	0.04660326739535
0	2505	122.975293298944	0.04660326739535
0	2507	123.075293298944	0.04660326739535
0	2509	123.175293298944	0.04660326739535
0	2511	123.275293298944	0.04660326739535
0	2513	123.375293298944	0.04660326739535
0	2515	123.475293298944	0.04660326739535
0	2516	123.548415184	0.04660326739535
0	2517	123.575293298944	0.04660326739535
0	2519	123.675293298944	0.04660326739535
0	2521	123.775293298944	0.04660326739535
0	2523	123.875293298944	0.04660326739535
0	2525	123.975293298944	0.04660326739535
0	2527	124.075293298944	0.04660326739535
0	2529	124.175293298944	0.04660326739535
0	2531	124.275293298944	0.04660326739535
0	2533	124.375293298944	0.04660326739535
0	2533	124.38346837	0.04660326739535
0	2535	124.475293298944	0.04660326739535
0	2537	124.575293298944	0.04660326739535
0	2539	124.675293298944	0.04660326739535
0	2541	124.775293298944	0.04660326739535
0	2543	124.875293298944	0.04660326739535
0	2545	124.975293298944	0.04660326739535
0	2546	124.980241217061	0.04660326739535
0	2548	125.080241217061	0.04660326739535
0	2549	125.124655033	0.04660326739535
0	2550	125.180241217061	0.04660326739535
0	2552	125.280241217061	0.046137234721396
0	2552	125.280241217061	0.046137234721396
0	2554	125.380241217061	0.046137234721396
0	2556	125.480241217061	0.046137234721396
0	2558	125.580241217061	0.046137234721396
0	2560	125.680241217061	0.046137234721396
0	2562	125.780241217061	0.046137234721396
0	2562	125.813431291	0.046137234721396
0	2564	125.880241217061	0.046137234721396
0	2566	125.980241217061	0.046137234721396
0	2568	126.080241217061	0.046137234721396
0	2570	126.180241217061	0.046137234721396
0	2572	126.280241217061	0.046137234721396
0	2574	126.380241217061	0.046137234721396
0	2576	126.480241217061	0.046137234721396
0	2578	126.580241217061	0.046137234721396
0	2579	126.652611232	0.046137234721396
0	2580	126.680241217061	0.046137234721396
0	2582	126.780241217061	0.045675862374182
0	2582	126.780241217061	0.045675862374182
0	2584	126.880241217061	0.045675862374182
0	2586	126.980241217061	0.045675862374182
0	2588	127.080241217061	0.045675862374182
0	2590	127.180241217061	0.045675862374182
0	2592	127.280241217061	0.045675862374182
0	2594	127.380241217061	0.045675862374182
0	2594	127.410697459	0.045675862374182
0	2596	127.480241217061	0.045675862374182
0	2598	127.580241217061	0.045675862374182
0	2600	127.680241217061	0.045675862374182
0	2602	127.780241217061	0.045675862374182
0	2604	127.880241217061	0.045675862374182
0	2606	127.980241217061	0.045675862374182
0	2608	128.080241217061	0.045675862374182
0	2609	128.133315583	0.045675862374182
0	2610	128.180241217061	0.045675862374182
0	2612	128.280241217061	0.04521910375044
0	2612	128.280241217061	0.04521910375044
0	2614	128.380241217061	0.04521910375044
0	2616	128.480241217061	0.04521910375044
0	2618	128.580241217061	0.04521910375044
0	2620	128.680241217061	0.04521910375044
0	2622	128.780241217061	0.04521910375044
0	2623	128.870376169	0.04521910375044
0	2624	128.880241217061	0.04521910375044
0	2626	128.980241217061	0.04521910375044
0	2628	129.080241217061	0.04521910375044
0	2630	129.180241217061	0.04521910375044
0	2632	129.280241217061	0.04521910375044
0	2634	129.380241217061	0.04521910375044
0	2636	129.480241217061	0.04521910375044
0	2638	129.580241217061	0.04521910375044
0	2640	129.680241217061	0.04521910375044
0	2640	129.68399512	0.04521910375044
0	2642	129.780241217061	0.044766912712936
0	2642	129.780241217061	0.044766912712936
0	2644	129.880241217061	0.044766912712936
0	2646	129.980241217061	0.044766912712936
0	2648	130.080241217061	0.044766912712936
0	2650	130.180241217061	0.044766912712936
0	2651	130.256993719	0.044766912712936
0	2652	130.280241217061	0.044766912712936
0	2654	130.380241217061	0.044766912712936
0	2656	130.480241217061	0.044766912712936
0	2658	130.580241217061	0.044766912712936
0	2660	130.680241217061	0.044766912712936
0	2662	130.780241217061	0.044766912712936
0	2662	130.786734031	0.044766912712936
0	2664	130.880241217061	0.044766912712936
0	2666	130.980241217061	0.044766912712936
0	2668	131.080241217061	0.044766912712936
0	2669	131.093204666273	0.044766912712936
0	2671	131.193204666273	0.044766912712936
0	2673	131.293204666273	0.044766912712936
0	2673	131.312460241	0.044766912712936
0	2675	131.393204666273	0.044766912712936
0	2677	131.493204666273	0.044766912712936
0	2679	131.593204666273	0.044766912712936
0	2681	131.693204666273	0.044766912712936
0	2683	131.793204666273	0.044766912712936
0	2685	131.893204666273	0.044766912712936
0	2685	131.908056745	0.044766912712936
0	2687	131.993204666273	0.044766912712936
0	2689	132.093204666273	0.044766912712936
0	2691	132.193204666273	0.044766912712936
0	2693	132.293204666273	0.044766912712936
0	2695	132.393204666273	0.044766912712936
0	2697	132.493204666273	0.044766912712936
0	2698	132.568939297	0.044766912712936
0	2699	132.593204666273	0.044766912712936
0	2701	132.693204666273	0.044766912712936
0	2703	132.793204666273	0.044766912712936
0	2705	132.893204666273	0.044766912712936
0	2707	132.993204666273	0.044766912712936
0	2708	133.071568873	0.044766912712936
0	2709	133.093204666273	0.044766912712936
0	2711	133.193204666273	0.044766912712936
0	2713	133.293204666273	0.044766912712936
0	2715	133.393204666273	0.044766912712936
0	2717	133.493204666273	0.044766912712936
0	2719	133.593204666273	0.044766912712936
0	2719	133.597629739	0.044766912712936
0	2721	133.693204666273	0.044766912712936
0	2723	133.793204666273	0.044766912712936
0	2725	133.893204666273	0.044766912712936
0	2727	133.993204666273	0.044766912712936
0	2729	134.093204666273	0.044766912712936
0	2731	134.193204666273	0.044766912712936
0	2731	134.214181384	0.044766912712936
0	2733	134.293204666273	0.044766912712936
0	2735	134.393204666273	0.044766912712936
0	2737	134.493204666273	0.044766912712936
0	2739	134.593204666273	0.044766912712936
0	2741	134.693204666273	0.044766912712936
0	2742	134.777673262	0.044766912712936
0	2743	134.793204666273	0.044766912712936
0	2745	134.893204666273	0.044766912712936
0	2747	134.993204666273	0.044766912712936
0	2749	135.093204666273	0.044766912712936
0	2751	135.193204666273	0.044766912712936
0	2753	135.293204666273	0.044766912712936
0	2754	135.318708736	0.044766912712936
0	2755	135.393204666273	0.044766912712936
0	2757	135.493204666273	0.044766912712936
0	2759	135.593204666273	0.044766912712936
0	2761	135.693204666273	0.044766912712936
0	2763	135.793204666273	0.044766912712936
0	2765	135.893204666273	0.044766912712936
0	2766	135.956942107	0.044766912712936
0	2767	135.993204666273	0.044766912712936
0	2769	136.093204666273	0.044766912712936
0	2771	136.193204666273	0.044766912712936
0	2773	136.293204666273	0.044766912712936
0	2775	136.393204666273	0.044766912712936
0	2777	136.493204666273	0.044766912712936
0	2779	136.593204666273	0.044766912712936
0	2780	136.67286322	0.044766912712936
0	2781	136.693204666273	0.044766912712936
0	2783	136.793204666273	0.044766912712936
0	2785	136.893204666273	0.044766912712936
0	2787	136.993204666273	0.044766912712936
0	2789	137.093204666273	0.044766912712936
0	2791	137.193204666273	0.044766912712936
0	2792	137.227507066	0.044766912712936
0	2793	137.293204666273	0.044766912712936
0	2795	137.393204666273	0.044766912712936
0	2797	137.493204666273	0.044766912712936
0	2799	137.593204666273	0.044766912712936
0	2801	137.693204666273	0.044766912712936
0	2802	137.740532281	0.044766912712936
0	2803	137.793204666273	0.044766912712936
0	2805	137.893204666273	0.044766912712936
0	2807	137.993204666273	0.044766912712936
0	2809	138.093204666273	0.044766912712936
0	2811	138.193204666273	0.044766912712936
0	2813	138.293204666273	0.044766912712936
0	2814	138.321794005	0.044766912712936
0	2815	138.393204666273	0.044766912712936
0	2817	138.493204666273	0.044766912712936
0	2818	138.499124255288	0.044766912712936
0	2820	138.599124255288	0.044766912712936
0	2822	138.699124255288	0.044766912712936
0	2824	138.799124255288	0.044766912712936
0	2826	138.899124255288	0.044766912712936
0	2826	138.917533972	0.044766912712936
0	2829	138.999124255288	0.044766912712936
0	2831	139.099124255288	0.044766912712936
0	2833	139.199124255288	0.044766912712936
0	2835	139.299124255288	0.044766912712936
0	2837	139.399124255288	0.044766912712936
0	2839	139.499124255288	0.044766912712936
0	2841	139.599124255288	0.044766912712936
0	2842	139.697902471	0.044766912712936
0	2843	139.699124255288	0.044766912712936
0	2845	139.799124255288	0.044766912712936
0	2847	139.899124255288	0.044766912712936
0	2849	139.999124255288	0.044766912712936
0	2851	140.099124255288	0.044766912712936
0	2853	140.199124255288	0.044766912712936
0	2853	140.275374436	0.044766912712936
0	2855	140.299124255288	0.044766912712936
0	2857	140.399124255288	0.044766912712936
0	2859	140.499124255288	0.044766912712936
0	2861	140.599124255288	0.044766912712936
0	2863	140.699124255288	0.044766912712936
0	2865	140.799124255288	0.044766912712936
0	2867	140.899124255288	0.044766912712936
0	2867	140.968908283	0.044766912712936
0	2869	140.999124255288	0.044766912712936
0	2871	141.099124255288	0.044766912712936
0	2872	141.132132250375	0.044766912712936
0	2874	141.190404072141	0.045
0	2875	141.199124255288	0.045034880732588
0	2877	141.299124255288	0.045434880732588
0	2878	141.315404072141	0.0455
0	2880	141.399124255288	0.045834880732588
0	2881	141.440404072141	0.046
0	2883	141.499124255288	0.046234880732588
0	2884	141.565404072141	0.0465
0	2886	141.599124255288	0.046634880732588
0	2886	141.642607357	0.046808813139436
0	2888	141.690404072141	0.047
0	2889	141.699124255288	0.047034880732588
0	2891	141.799124255288	0.047434880732588
0	2892	141.815404072141	0.0475
0	2894	141.899124255288	0.047834880732588
0	2895	141.940404072141	0.048
0	2897	141.999124255288	0.048234880732588
0	2898	142.065404072141	0.0485
0	2900	142.099124255288	0.048634880732588
0	2902	142.190404072141	0.049
0	2903	142.199124255288	0.049034880732588
0	2905	142.299124255288	0.049434880732588
0	2906	142.315404072141	0.0495
0	2906	142.331812777	0.049565634819436
0	2908	142.399124255288	0.049834880732588
0	2909	142.400170323689	0.049839065006192
0	2911	142.499124255288	0.049839065006192
0	2913	142.599124255288	0.049839065006192
0	2915	142.699124255288	0.049839065006192
0	2917	142.799124255288	0.049839065006192
0	2919	142.899124255288	0.049839065006192
0	2920	142.983948217	0.049839065006192
0	2921	142.999124255288	0.049839065006192
0	2923	143.099124255288	0.049839065006192
0	2925	143.199124255288	0.049839065006192
0	2927	143.299124255288	0.049839065006192
0	2929	143.399124255288	0.049839065006192
0	2931	143.499124255288	0.049839065006192
0	2932	143.578649117971	0.049839065006192
0	2934	143.678649117971	0.049839065006192
0	2935	143.735964712	0.049839065006192
0	2936	143.778649117971	0.04934067435613
0	2936	143.778649117971	0.04934067435613
0	2938	143.878649117971	0.04934067435613
0	2940	143.978649117971	0.04934067435613
0	2942	144.078649117971	0.04934067435613
0	2944	144.178649117971	0.04934067435613
0	2946	144.278649117971	0.04934067435613
0	2948	144.378649117971	0.04934067435613
0	2949	144.392471917	0.04934067435613
0	2950	144.478649117971	0.04934067435613
0	2952	144.578649117971	0.04934067435613
0	2955	144.678649117971	0.04934067435613
0	2957	144.778649117971	0.04934067435613
0	2959	144.878649117971	0.04934067435613
0	2960	144.978569602	0.04934067435613
0	2961	144.978649117971	0.04934067435613
0	2963	145.078649117971	0.04934067435613
0	2965	145.178649117971	0.04934067435613
0	2967	145.278649117971	0.04934067435613
0	2969	145.378649117971	0.04934067435613
0	2971	145.478649117971	0.04934067435613
0	2971	145.49351977	0.04934067435613
0	2973	145.578649117971	0.04934067435613
0	2975	145.678649117971	0.04934067435613
0	2977	145.778649117971	0.04934067435613
0	2980	145.878649117971	0.04934067435613
0	2982	145.978649117971	0.04934067435613
0	2982	146.035479094	0.04934067435613
0	2984	146.078649117971	0.04934067435613
0	2986	146.178649117971	0.04934067435613
0	2988	146.278649117971	0.04934067435613
0	2990	146.378649117971	0.04934067435613
0	2992	146.478649117971	0.04934067435613
0	2994	146.578649117971	0.04934067435613
0	2994	146.589927463	0.04934067435613
0	2996	146.678649117971	0.04934067435613
0	2998	146.778649117971	0.04934067435613
0	2999	146.853878434992	0.04934067435613
0	3001	146.878649117971	0.049439757088046
0	3002	146.893709845959	0.0495
0	3004	146.978649117971	0.049839757088048
0	3005	147.018709845959	0.05
0	3007	147.078649117971	0.05
0	3009	147.178649117971	0.05
0	3009	147.187356994	0.05
0	3011	147.278649117971	0.05
0	3013	147.378649117971	0.05
0	3014	147.413953959874	0.05
0	3017	147.513953959874	0.05
0	3019	147.613953959874	0.05
0	3021	147.713953959874	0.05
0	3022	147.812648869	0.05
0	3023	147.813953959874	0.05
0	3025	147.913953959874	0.0495
0	3025	147.913953959874	0.0495
0	3027	148.013953959874	0.0499
0	3029	148.113953959874	0.05
0	3031	148.213953959874	0.05
0	3033	148.313953959874	0.05
0	3035	148.413953959874	0.05
0	3035	148.421924617	0.05
0	3037	148.513953959874	0.05
0	3039	148.613953959874	0.05
0	3041	148.713953959874	0.05
0	3043	148.813953959874	0.05
0	3045	148.913953959874	0.05
0	3047	149.013953959874	0.05
0	3047	149.026015168	0.05
0	3049	149.113953959874	0.05
0	3051	149.213953959874	0.05
0	3053	149.313953959874	0.05
0	3055	149.413953959874	0.0495
0	3055	149.413953959874	0.0495
0	3057	149.513953959874	0.0499
0	3059	149.613953959874	0.05
0	3060	149.683323127	0.05
0	3061	149.713953959874	0.05
0	3063	149.813953959874	0.05
0	3065	149.913953959874	0.05
0	3067	150.013953959874	0.05
0	3069	150.113953959874	0.05
0	3071	150.213953959874	0.05
0	3071	150.256368493	0.05
0	3073	150.313953959874	0.05
0	3075	150.413953959874	0.05
0	3077	150.513953959874	0.05
0	3079	150.613953959874	0.05
0	3081	150.713953959874	0.05
0	3081	150.756977239	0.05
0	3083	150.813953959874	0.0495
0	3083	150.813953959874	0.0495
0	3085	150.913953959874	0.0499
0	3087	151.013953959874	0.05
0	3088	151.024345087155	0.05
0	3090	151.124345087155	0.05
0	3092	151.224345087155	0.05
0	3094	151.324345087155	0.05
0	3095	151.363225198	0.05
0	3096	151.424345087155	0.05
0	3098	151.524345087155	0.05
0	3100	151.624345087155	0.05
0	3102	151.724345087155	0.05
0	3104	151.824345087155	0.05
0	3106	151.924345087155	0.05
0	3108	152.024345087155	0.05
0	3108	152.039421004	0.05
0	3110	152.124345087155	0.05
0	3112	152.175174208033	0.05
0	3113	152.224345087155	0.0495
0	3113	152.224345087155	0.0495
0	3115	152.324345087155	0.0495
0	3117	152.424345087155	0.0495
0	3119	152.524345087155	0.0495
0	3121	152.624345087155	0.0495
0	3123	152.724345087155	0.0495
0	3124	152.756708722	0.0495
0	3125	152.824345087155	0.0495
0	3127	152.924345087155	0.0495
0	3129	153.024345087155	0.0495
0	3131	153.124345087155	0.0495
0	3133	153.224345087155	0.0495
0	3135	153.324345087155	0.0495
0	3137	153.424345087155	0.0495
0	3139	153.524345087155	0.0495
0	3141	153.624345087155	0.0495
0	3142	153.660643141	0.0495
0	3143	153.724345087155	0.049005
0	3143	153.724345087155	0.049005
0	3145	153.824345087155	0.049005
0	3147	153.924345087155	0.049005
0	3149	154.024345087155	0.049005
0	3151	154.124345087155	0.049005
0	3153	154.224345087155	0.049005
0	3155	154.324345087155	0.049005
0	3157	154.424345087155	0.049005
0	3158	154.470167176	0.049005
0	3159	154.524345087155	0.049005
0	3161	154.624345087155	0.049005
0	3163	154.724345087155	0.049005
0	3165	154.824345087155	0.049005
0	3167	154.924345087155	0.049005
0	3169	155.024345087155	0.049005
0	3171	155.124345087155	0.049005
0	3173	155.224345087155	0.049005
0	3174	155.243980348	0.04851495
0	3174	155.243980348	0.04851495
0	3175	155.324345087155	0.04851495
0	3177	155.424345087155	0.04851495
0	3179	155.524345087155	0.04851495
0	3181	155.624345087155	0.04851495
0	3183	155.724345087155	0.04851495
0	3185	155.824345087155	0.04851495
0	3186	155.886720118	0.04851495
0	3187	155.924345087155	0.04851495
0	3189	156.024345087155	0.04851495
0	3192	156.124345087155	0.04851495
0	3194	156.224345087155	0.04851495
0	3196	156.324345087155	0.04851495
0	3198	156.424345087155	0.04851495
0	3198	156.433516261	0.04851495
0	3200	156.524345087155	0.04851495
0	3202	156.624345087155	0.04851495
0	3204	156.724345087155	0.04851495
0	3206	156.824345087155	0.04851495
0	3208	156.924345087155	0.04851495
0	3208	157.008622609	0.04851495
0	3210	157.024345087155	0.04851495
0	3212	157.124345087155	0.04851495
0	3213	157.158423199312	0.04851495
0	3215	157.258423199312	0.04851495
0	3217	157.358423199312	0.04851495
0	3219	157.458423199312	0.04851495
0	3221	157.558423199312	0.04851495
0	3223	157.658423199312	0.04851495
0	3223	157.67344873	0.04851495
0	3225	157.758423199312	0.04851495
0	3227	157.858423199312	0.04851495
0	3229	157.958423199312	0.04851495
0	3231	158.058423199312	0.04851495
0	3233	158.158423199312	0.0480298005
0	3233	158.158423199312	0.0480298005
0	3235	158.258423199312	0.0480298005
0	3237	158.358423199312	0.0480298005
0	3237	158.37849901	0.0480298005
0	3239	158.458423199312	0.0480298005
0	3241	158.558423199312	0.0480298005
0	3243	158.658423199312	0.0480298005
0	3245	158.758423199312	0.0480298005
0	3247	158.858423199312	0.0480298005
0	3249	158.958423199312	0.0480298005
0	3250	159.02540263	0.0480298005
0	3251	159.058423199312	0.0480298005
0	3253	159.158423199312	0.0480298005
0	3255	159.258423199312	0.0480298005
0	3257	159.358423199312	0.0480298005
0	3259	159.458423199312	0.0480298005
0	3261	159.558423199312	0.0480298005
0	3262	159.646817815	0.047549502495
0	3262	159.646817815	0.047549502495
0	3263	159.658423199312	0.047549502495
0	3265	159.758423199312	0.047549502495
0	3267	159.858423199312	0.047549502495
0	3269	159.958423199312	0.047549502495
0	3271	160.058423199312	0.047549502495
0	3273	160.158423199312	0.047549502495
0	3274	160.247244157	0.047549502495
0	3275	160.258423199312	0.047549502495
0	3277	160.358423199312	0.047549502495
0	3279	160.458423199312	0.047549502495
0	3281	160.558423199312	0.047549502495
0	3283	160.658423199312	0.047549502495
0	3285	160.758423199312	0.047549502495
0	3287	160.858423199312	0.047549502495
0	3289	160.958423199312	0.047549502495
0	3289	160.995967738	0.047549502495
0	3291	161.058423199312	0.04707400747005
0	3291	161.058423199312	0.04707400747005
0	3293	161.158423199312	0.04707400747005
0	3295	161.258423199312	0.04707400747005
0	3297	161.358423199312	0.04707400747005
0	3299	161.458423199312	0.04707400747005
0	3301	161.558423199312	0.04707400747005
0	3303	161.658423199312	0.04707400747005
0	3305	161.758423199312	0.04707400747005
0	3307	161.858423199312	0.04707400747005
0	3308	161.926097968	0.04707400747005
0	3309	161.958423199312	0.04707400747005
0	3311	162.058423199312	0.04707400747005
0	3313	162.158423199312	0.04707400747005
0	3315	162.258423199312	0.04707400747005
0	3317	162.358423199312	0.04707400747005
0	3319	162.458423199312	0.04707400747005
0	3321	162.558423199312	0.04707400747005
0	3322	162.650460475	0.04660326739535
0	3322	162.650460475	0.04660326739535
0	3323	162.658423199312	0.04660326739535
0	3325	162.758423199312	0.04660326739535
0	3327	162.858423199312	0.04660326739535
0	3329	162.958423199312	0.04660326739535
0	3331	163.058423199312	0.04660326739535
0	3333	163.158423199312	0.04660326739535
0	3335	163.258423199312	0.04660326739535
0	3336	163.329831502	0.04660326739535
0	3337	163.358423199312	0.04660326739535
0	3339	163.458423199312	0.04660326739535
0	3341	163.558423199312	0.04660326739535
0	3343	163.658423199312	0.04660326739535
0	3345	163.725169005577	0.04660326739535
0	3347	163.825169005577	0.04660326739535
0	3349	163.925169005577	0.04660326739535
0	3349	163.983426886	0.04660326739535
0	3351	164.025169005577	0.046137234721396
0	3351	164.025169005577	0.046137234721396
0	3353	164.125169005577	0.046137234721396
0	3355	164.225169005577	0.046137234721396
0	3357	164.325169005577	0.046137234721396
0	3360	164.425169005577	0.046137234721396
0	3362	164.525169005577	0.046137234721396
0	3363	164.574303748	0.046137234721396
0	3365	164.625169005577	0.046137234721396
0	3368	164.725169005577	0.046137234721396
0	3370	164.825169005577	0.046137234721396
0	3372	164.925169005577	0.046137234721396
0	3374	165.025169005577	0.046137234721396
0	3376	165.125169005577	0.046137234721396
0	3376	165.145474972	0.046137234721396
0	3378	165.225169005577	0.046137234721396
0	3380	165.325169005577	0.046137234721396
0	3382	165.425169005577	0.046137234721396
0	3384	165.525169005577	0.046137234721396
0	3386	165.625169005577	0.046137234721396
0	3388	165.725169005577	0.046137234721396
0	3388	165.739716703	0.046137234721396
0	3390	165.825169005577	0.046137234721396
0	3392	165.925169005577	0.046137234721396
0	3394	166.025169005577	0.046137234721396
0	3396	166.125169005577	0.046137234721396
0	3398	166.225169005577	0.046137234721396
0	3400	166.325169005577	0.046137234721396
0	3400	166.347055282	0.046137234721396
0	3402	166.425169005577	0.046137234721396
0	3404	166.525169005577	0.046137234721396
0	3406	166.625169005577	0.046137234721396
0	3408	166.725169005577	0.046137234721396
0	3410	166.825169005577	0.046137234721396
0	3411	166.908166507	0.046137234721396
0	3412	166.925169005577	0.046137234721396
0	3414	167.025169005577	0.046137234721396
0	3416	167.125169005577	0.046137234721396
0	3418	167.225169005577	0.046137234721396
0	3420	167.325169005577	0.046137234721396
0	3422	167.425169005577	0.046137234721396
0	3424	167.525169005577	0.046137234721396
0	3425	167.575612252	0.046137234721396
0	3426	167.625169005577	0.046137234721396
0	3428	167.725169005577	0.046137234721396
0	3430	167.825169005577	0.046137234721396
0	3432	167.925169005577	0.046137234721396
0	3434	168.025169005577	0.046137234721396
0	3436	168.125169005577	0.046137234721396
0	3437	168.223657783	0.046137234721396
0	3438	168.225169005577	0.046137234721396
0	3440	168.325169005577	0.046137234721396
0	3442	168.425169005577	0.046137234721396
0	3444	168.525169005577	0.046137234721396
0	3446	168.625169005577	0.046137234721396
0	3448	168.725169005577	0.046137234721396
0	3450	168.825169005577	0.046137234721396
0	3450	168.84272647	0.046137234721396
0	3452	168.925169005577	0.046137234721396
0	3454	169.025169005577	0.046137234721396
0	3456	169.125169005577	0.046137234721396
0	3458	169.225169005577	0.046137234721396
0	3460	169.325169005577	0.046137234721396
0	3462	169.425169005577	0.046137234721396
0	3462	169.460558386	0.046137234721396
0	3464	169.525169005577	0.046137234721396
0	3465	169.558454245971	0.046137234721396
0	3467	169.658454245971	0.046137234721396
0	3469	169.758454245971	0.045675862374182
0	3469	169.758454245971	0.045675862374182
0	3471	169.858454245971	0.045675862374182
0	3473	169.958454245971	0.045675862374182
0	3474	170.020508587	0.045675862374182
0	3475	170.058454245971	0.045675862374182
0	3477	170.158454245971	0.045675862374182
0	3481	170.258454245971	0.045675862374182
0	3483	170.358454245971	0.045675862374182
0	3485	170.458454245971	0.045675862374182
0	3487	170.558454245971	0.045675862374182
0	3489	170.658454245971	0.045675862374182
0	3491	170.758454245971	0.045675862374182
0	3491	170.770104478	0.045675862374182
0	3493	170.858454245971	0.045675862374182
0	3495	170.958454245971	0.045675862374182
0	3497	171.058454245971	0.045675862374182
0	3499	171.158454245971	0.045675862374182
0	3501	171.258454245971	0.045675862374182
0	3503	171.358454245971	0.045675862374182
0	3505	171.458454245971	0.045675862374182
0	3505	171.496349143	0.045675862374182
0	3507	171.558454245971	0.045675862374182
0	3509	171.658454245971	0.045675862374182
0	3511	171.758454245971	0.045675862374182
0	3513	171.858454245971	0.045675862374182
0	3515	171.958454245971	0.045675862374182
0	3516	172.020604756	0.045675862374182
0	3517	172.058454245971	0.045675862374182
0	3519	172.158454245971	0.045675862374182
0	3521	172.258454245971	0.045675862374182
0	3523	172.358454245971	0.045675862374182
0	3525	172.458454245971	0.045675862374182
0	3527	172.558454245971	0.045675862374182
0	3529	172.658454245971	0.045675862374182
0	3530	172.733616958	0.045675862374182
0	3531	172.758454245971	0.045675862374182
0	3533	172.858454245971	0.045675862374182
0	3535	172.958454245971	0.045675862374182
0	3537	173.058454245971	0.045675862374182
0	3539	173.158454245971	0.045675862374182
0	3541	173.258454245971	0.045675862374182
0	3543	173.358454245971	0.045675862374182
0	3545	173.458454245971	0.045675862374182
0	3547	173.558454245971	0.045675862374182
0	3547	173.578523635	0.045675862374182
0	3549	173.658454245971	0.045675862374182
0	3551	173.758454245971	0.045675862374182
0	3553	173.858454245971	0.045675862374182
0	3555	173.958454245971	0.045675862374182
0	3557	174.058454245971	0.045675862374182
0	3559	174.158454245971	0.045675862374182
0	3561	174.258454245971	0.045675862374182
0	3563	174.358454245971	0.045675862374182
0	3564	174.457871317	0.045675862374182
0	3565	174.458454245971	0.045675862374182
0	3568	174.558454245971	0.045675862374182
0	3570	174.658454245971	0.045675862374182
0	3572	174.758454245971	0.045675862374182
0	3574	174.858454245971	0.045675862374182
0	3576	174.958454245971	0.045675862374182
0	3577	175.051548436	0.045675862374182
0	3578	175.058454245971	0.045675862374182
0	3580	175.158454245971	0.045675862374182
0	3582	175.258454245971	0.045675862374182
0	3584	175.358454245971	0.045675862374182
0	3586	175.458454245971	0.045675862374182
0	3588	175.558454245971	0.045675862374182
0	3590	175.658454245971	0.04521910375044
0	3590	175.658454245971	0.04521910375044
0	3590	175.685132074	0.04521910375044
0	3592	175.758454245971	0.04521910375044
0	3594	175.858454245971	0.04521910375044
0	3596	175.958454245971	0.04521910375044
0	3598	176.058454245971	0.04521910375044
0	3600	176.158454245971	0.04521910375044
0	3601	176.233719202	0.04521910375044
0	3602	176.258454245971	0.04521910375044
0	3604	176.358454245971	0.04521910375044
0	3606	176.458454245971	0.04521910375044
0	3608	176.558454245971	0.04521910375044
0	3610	176.658454245971	0.04521910375044
0	3611	176.748165151	0.04521910375044
0	3612	176.758454245971	0.04521910375044
0	3614	176.858454245971	0.04521910375044
0	3616	176.958454245971	0.04521910375044
0	3618	177.02942302611	0.044766912712936
0	3618	177.02942302611	0.044766912712936
0	3620	177.12942302611	0.044766912712936
0	3622	177.22942302611	0.044766912712936
0	3622	177.310388164	0.044766912712936
0	3624	177.32942302611	0.044766912712936
0	3626	177.42942302611	0.044766912712936
0	3628	177.52942302611	0.044766912712936
0	3630	177.62942302611	0.044766912712936
0	3632	177.72942302611	0.044766912712936
0	3634	177.82942302611	0.044766912712936
0	3636	177.92942302611	0.044766912712936
0	3637	178.021111075	0.044766912712936
0	3638	178.02942302611	0.044766912712936
0	3640	178.12942302611	0.044766912712936
0	3642	178.22942302611	0.044766912712936
0	3644	178.32942302611	0.044766912712936
0	3646	178.42942302611	0.044766912712936
0	3648	178.52942302611	0.044319243585806
0	3648	178.52942302611	0.044319243585806
0	3650	178.62942302611	0.044319243585806
0	3652	178.72942302611	0.044319243585806
0	3654	178.82942302611	0.044319243585806
0	3654	178.889193652	0.044319243585806
0	3656	178.92942302611	0.044319243585806
0	3658	179.02942302611	0.044319243585806
0	3660	179.12942302611	0.044319243585806
0	3662	179.22942302611	0.044319243585806
0	3664	179.32942302611	0.044319243585806
0	3666	179.42942302611	0.044319243585806
0	3668	179.52942302611	0.044319243585806
0	3670	179.62942302611	0.044319243585806
0	3670	179.691012892	0.044319243585806
0	3672	179.72942302611	0.044319243585806
0	3674	179.82942302611	0.044319243585806
0	3676	179.92942302611	0.044319243585806
0	3678	180.02942302611	0.043876051149948
0	3678	180.02942302611	0.043876051149948
0	3680	180.12942302611	0.043876051149948
0	3682	180.22942302611	0.043876051149948
0	3684	180.32942302611	0.043876051149948
0	3686	180.42942302611	0.043876051149948
0	3687	180.525761884	0.043876051149948
0	3688	180.52942302611	0.043876051149948
0	3690	180.62942302611	0.043876051149948
0	3692	180.72942302611	0.043876051149948
0	3694	180.82942302611	0.043876051149948
0	3696	180.92942302611	0.043876051149948
0	3698	181.02942302611	0.043876051149948
0	3700	181.12942302611	0.043876051149948
0	3701	181.189876948	0.043876051149948
0	3702	181.22942302611	0.043876051149948
0	3704	181.319687706746	0.043876051149948
0	3707	181.419687706746	0.043876051149948
0	3709	181.519687706746	0.043437290638449
0	3709	181.519687706746	0.043437290638449
0	3711	181.619687706746	0.043437290638449
0	3713	181.719687706746	0.043437290638449
0	3715	181.819687706746	0.043437290638449
0	3715	181.852284838	0.043437290638449
0	3717	181.919687706746	0.043437290638449
0	3719	182.019687706746	0.043437290638449
0	3721	182.119687706746	0.043437290638449
0	3723	182.219687706746	0.043437290638449
0	3725	182.319687706746	0.043437290638449
0	3727	182.419687706746	0.043437290638449
0	3729	182.519687706746	0.043437290638449
0	3731	182.619687706746	0.043437290638449
0	3731	182.62961755	0.043437290638449
0	3733	182.719687706746	0.043437290638449
0	3735	182.819687706746	0.043437290638449
0	3737	182.919687706746	0.043437290638449
0	3739	183.019687706746	0.043002917732064
0	3739	183.019687706746	0.043002917732064
0	3741	183.119687706746	0.043002917732064
0	3743	183.219687706746	0.043002917732064
0	3745	183.319687706746	0.043002917732064
0	3746	183.410291176	0.043002917732064
0	3747	183.419687706746	0.043002917732064
0	3749	183.519687706746	0.043002917732064
0	3751	183.619687706746	0.043002917732064
0	3753	183.719687706746	0.043002917732064
0	3755	183.819687706746	0.043002917732064
0	3757	183.919687706746	0.043002917732064
0	3759	184.019687706746	0.043002917732064
0	3761	184.119687706746	0.043002917732064
0	3763	184.203520498	0.043002917732064
0	3764	184.219687706746	0.043002917732064
0	3766	184.319687706746	0.043002917732064
0	3768	184.419687706746	0.043002917732064
0	3770	184.519687706746	0.043002917732064
0	3772	184.619687706746	0.043002917732064
0	3774	184.719687706746	0.043002917732064
0	3775	184.785701119	0.043002917732064
0	3776	184.819687706746	0.043002917732064
0	3778	184.919687706746	0.043002917732064
0	3780	185.019687706746	0.043002917732064
0	3782	185.119687706746	0.043002917732064
0	3784	185.219687706746	0.043002917732064
0	3786	185.319687706746	0.043002917732064
0	3787	185.414530936	0.043002917732064
0	3788	185.419687706746	0.043002917732064
0	3790	185.519687706746	0.043002917732064
0	3792	185.619687706746	0.043002917732064
0	3794	185.719687706746	0.043002917732064
0	3796	185.819687706746	0.043002917732064
0	3798	185.919687706746	0.043002917732064
0	3799	185.996940223	0.043002917732064
0	3800	186.019687706746	0.043002917732064
0	3802	186.119687706746	0.043002917732064
0	3804	186.219687706746	0.043002917732064
0	3806	186.319687706746	0.043002917732064
0	3808	186.419687706746	0.043002917732064
0	3810	186.519687706746	0.043002917732064
0	3811	186.591482038	0.043002917732064
0	3812	186.619687706746	0.043002917732064
0	3814	186.719687706746	0.043002917732064
0	3816	186.819687706746	0.043002917732064
0	3819	186.919687706746	0.043002917732064
0	3822	187.019687706746	0.043002917732064
0	3825	187.119687706746	0.043002917732064
0	3825	187.146301321	0.043002917732064
0	3827	187.219687706746	0.042572888554744
0	3827	187.219687706746	0.042572888554744
0	3829	187.319687706746	0.042572888554744
0	3831	187.419687706746	0.042572888554744
0	3833	187.519687706746	0.042572888554744
0	3835	187.619687706746	0.042572888554744
0	3837	187.719687706746	0.042572888554744
0	3838	187.771186999	0.042572888554744
0	3839	187.819687706746	0.042572888554744
0	3841	187.919687706746	0.042572888554744
[...]
2	30129	1474.786278602171	0.0495
2	30129	1474.786278602171	0.0495
2	30131	1474.886278602171	0.0499
2	30133	1474.986278602171	0.05
2	30135	1475.086278602171	0.05
2	30137	1475.186278602171	0.05
2	30139	1475.286278602171	0.05
2	30141	1475.386278602171	0.05
2	30143	1475.486278602171	0.05
2	30143	1475.504726401054	0.05
2	30145	1475.586278602171	0.05
2	30147	1475.686278602171	0.05
2	30149	1475.786278602171	0.05
2	30151	1475.886278602171	0.05
2	30153	1475.986278602171	0.05
2	30155	1476.086278602171	0.05
2	30157	1476.186278602171	0.05
2	30158	1476.271109002054	0.05
2	30159	1476.286278602171	0.0495
2	30159	1476.286278602171	0.0495
2	30161	1476.386278602171	0.0499
2	30163	1476.486278602171	0.05
2	30165	1476.586278602171	0.05
2	30167	1476.686278602171	0.05
2	30169	1476.786278602171	0.05
2	30171	1476.886278602171	0.05
2	30171	1476.906106234055	0.05
2	30173	1476.986278602171	0.05
2	30175	1477.086278602171	0.05
2	30177	1477.186278602171	0.05
2	30179	1477.286278602171	0.05
2	30180	1477.350617971055	0.05
2	30181	1477.386278602171	0.05
2	30183	1477.486278602171	0.05
2	30185	1477.586278602171	0.05
2	30187	1477.686278602171	0.05
2	30188	1477.783115317055	0.05
2	30189	1477.786278602171	0.05
2	30191	1477.886278602171	0.05
2	30193	1477.986278602171	0.05
2	30195	1478.086278602171	0.05
2	30197	1478.186278602171	0.05
2	30198	1478.223410497055	0.05
2	30199	1478.286278602171	0.05
2	30201	1478.386278602171	0.05
2	30203	1478.486278602171	0.05
2	30205	1478.586278602171	0.05
2	30207	1478.686278602171	0.05
2	30208	1478.762417101055	0.05
2	30209	1478.786278602171	0.05
2	30211	1478.886278602171	0.05
2	30213	1478.986278602171	0.05
2	30215	1479.086278602171	0.05
2	30217	1479.186278602171	0.0495
2	30217	1479.186278602171	0.0495
2	30219	1479.286278602171	0.0499
2	30221	1479.386278602171	0.05
2	30222	1479.475597831056	0.05
2	30223	1479.486278602171	0.05
2	30225	1479.586278602171	0.05
2	30227	1479.686278602171	0.05
2	30229	1479.786278602171	0.05
2	30231	1479.886278602171	0.05
2	30233	1479.986278602171	0.05
2	30234	1480.020570370057	0.05
2	30235	1480.086278602171	0.05
2	30237	1480.186278602171	0.05
2	30239	1480.286278602171	0.05
2	30241	1480.386278602171	0.05
2	30243	1480.486278602171	0.05
2	30244	1480.522839349057	0.05
2	30245	1480.586278602171	0.0495
2	30245	1480.586278602171	0.0495
2	30247	1480.686278602171	0.0499
2	30249	1480.786278602171	0.05
2	30251	1480.886278602171	0.05
2	30253	1480.986278602171	0.05
2	30255	1481.086278602171	0.05
2	30256	1481.162885416058	0.05
2	30257	1481.186278602171	0.05
2	30259	1481.286278602171	0.05
2	30261	1481.386278602171	0.05
2	30263	1481.486278602171	0.05
2	30265	1481.586278602171	0.05
2	30267	1481.686278602171	0.05
2	30268	1481.750961748059	0.05
2	30269	1481.786278602171	0.05
2	30271	1481.886278602171	0.05
2	30273	1481.986278602171	0.05
2	30275	1482.086278602171	0.0495
2	30275	1482.086278602171	0.0495
2	30277	1482.186278602171	0.0499
2	30279	1482.286278602171	0.05
2	30280	1482.339663166059	0.05
2	30281	1482.386278602171	0.05
2	30283	1482.486278602171	0.05
2	30285	1482.586278602171	0.05
2	30287	1482.686278602171	0.05
2	30289	1482.786278602171	0.05
2	30291	1482.886278602171	0.05
2	30293	1482.986278602171	0.05
2	30293	1483.003051471059	0.05
2	30295	1483.086278602171	0.05
2	30297	1483.186278602171	0.05
2	30299	1483.286278602171	0.05
2	30301	1483.386278602171	0.05
2	30303	1483.486278602171	0.05
2	30305	1483.586278602171	0.0495
2	30305	1483.586278602171	0.0495
2	30305	1483.60853482906	0.049589024907556
2	30307	1483.686278602171	0.0499
2	30309	1483.786278602171	0.05
2	30311	1483.886278602171	0.05
2	30313	1483.986278602171	0.05
2	30315	1484.086278602171	0.05
2	30317	1484.186278602171	0.05
2	30318	1484.28303081406	0.05
2	30319	1484.286278602171	0.05
2	30321	1484.386278602171	0.05
2	30323	1484.486278602171	0.05
2	30325	1484.586278602171	0.05
2	30327	1484.686278602171	0.05
2	30329	1484.786278602171	0.05
2	30330	1484.85253827106	0.05
2	30331	1484.886278602171	0.05
2	30333	1484.986278602171	0.0495
2	30333	1484.986278602171	0.0495
2	30335	1485.086278602171	0.0499
2	30337	1485.186278602171	0.05
2	30339	1485.286278602171	0.05
2	30341	1485.386278602171	0.05
2	30342	1485.411863200061	0.05
2	30343	1485.486278602171	0.05
2	30345	1485.586278602171	0.05
2	30347	1485.686278602171	0.05
2	30349	1485.786278602171	0.05
2	30351	1485.886278602171	0.05
2	30352	1485.955374640061	0.05
2	30353	1485.986278602171	0.05
2	30355	1486.086278602171	0.05
2	30357	1486.186278602171	0.05
2	30359	1486.286278602171	0.05
2	30361	1486.386278602171	0.05
2	30362	1486.449591349061	0.05
2	30363	1486.486278602171	0.05
2	30365	1486.586278602171	0.05
2	30367	1486.686278602171	0.05
2	30369	1486.786278602171	0.05
2	30371	1486.886278602171	0.05
2	30373	1486.986278602171	0.05
2	30373	1486.995394297061	0.05
2	30375	1487.086278602171	0.05
2	30377	1487.186278602171	0.05
2	30379	1487.286278602171	0.05
2	30381	1487.386278602171	0.05
2	30383	1487.486278602171	0.05
2	30383	1487.500441663061	0.05
2	30385	1487.586278602171	0.05
2	30387	1487.686278602171	0.05
2	30389	1487.786278602171	0.05
2	30391	1487.886278602171	0.0495
2	30391	1487.886278602171	0.0495
2	30393	1487.986278602171	0.0499
2	30394	1488.024302254062	0.05
2	30395	1488.086278602171	0.05
2	30397	1488.186278602171	0.05
2	30399	1488.286278602171	0.05
2	30401	1488.386278602171	0.05
2	30402	1488.472210225062	0.05
2	30403	1488.486278602171	0.05
2	30405	1488.586278602171	0.05
2	30407	1488.686278602171	0.05
2	30409	1488.786278602171	0.05
2	30411	1488.886278602171	0.05
2	30413	1488.986278602171	0.05
2	30414	1489.050012427062	0.05
2	30415	1489.086278602171	0.05
2	30417	1489.186278602171	0.05
2	30419	1489.286278602171	0.0495
2	30419	1489.286278602171	0.0495
2	30421	1489.386278602171	0.0499
2	30423	1489.486278602171	0.05
2	30425	1489.586278602171	0.05
2	30426	1489.609772335062	0.05
2	30427	1489.686278602171	0.05
2	30429	1489.786278602171	0.05
2	30431	1489.886278602171	0.05
2	30431	1489.893523318062	0.05
2	30433	1489.986278602171	0.05
2	30435	1490.086278602171	0.05
2	30437	1490.186278602171	0.05
2	30439	1490.286278602171	0.05
2	30441	1490.386278602171	0.05
2	30442	1490.412508018063	0.05
2	30443	1490.486278602171	0.05
2	30445	1490.586278602171	0.05
2	30447	1490.686278602171	0.0495
2	30447	1490.686278602171	0.0495
2	30449	1490.786278602171	0.0499
2	30451	1490.886278602171	0.05
2	30453	1490.986278602171	0.05
2	30454	1491.051229855063	0.05
2	30455	1491.086278602171	0.05
2	30457	1491.186278602171	0.05
2	30459	1491.286278602171	0.05
2	30461	1491.386278602171	0.05
2	30463	1491.486278602171	0.05
2	30465	1491.586278602171	0.05
2	30467	1491.686278602171	0.05
2	30467	1491.708926719063	0.05
2	30469	1491.786278602171	0.05
2	30471	1491.886278602171	0.05
2	30473	1491.986278602171	0.05
2	30475	1492.086278602171	0.05
2	30477	1492.186278602171	0.0495
2	30477	1492.186278602171	0.0495
2	30478	1492.283304619064	0.049888104067572
2	30479	1492.286278602171	0.0499
2	30481	1492.386278602171	0.05
2	30483	1492.486278602171	0.05
2	30484	1492.575924043064	0.05
2	30485	1492.586278602171	0.05
2	30487	1492.686278602171	0.05
2	30489	1492.786278602171	0.05
2	30491	1492.886278602171	0.05
2	30493	1492.986278602171	0.05
2	30494	1493.054150032065	0.05
2	30495	1493.086278602171	0.05
2	30497	1493.186278602171	0.05
2	30499	1493.286278602171	0.05
2	30500	1493.340752401065	0.05
2	30501	1493.386278602171	0.05
2	30503	1493.486278602171	0.0495
2	30503	1493.486278602171	0.0495
2	30505	1493.586278602171	0.0499
2	30506	1493.625258331065	0.05
2	30507	1493.686278602171	0.05
2	30509	1493.786278602171	0.05
2	30511	1493.886278602171	0.05
2	30512	1493.925092335065	0.05
2	30513	1493.986278602171	0.05
2	30515	1494.086278602171	0.05
2	30517	1494.186278602171	0.05
2	30519	1494.286278602171	0.05
2	30521	1494.386278602171	0.05
2	30523	1494.486278602171	0.05
2	30525	1494.586278602171	0.05
2	30525	1494.589303351066	0.05
2	30527	1494.686278602171	0.05
2	30529	1494.786278602171	0.05
2	30531	1494.886278602171	0.0495
2	30531	1494.886278602171	0.0495
2	30533	1494.986278602171	0.0499
2	30535	1495.086278602171	0.05
2	30536	1495.148482489066	0.05
2	30537	1495.186278602171	0.05
2	30539	1495.286278602171	0.05
2	30541	1495.386278602171	0.05
2	30543	1495.486278602171	0.05
2	30545	1495.586278602171	0.05
2	30547	1495.686278602171	0.05
2	30549	1495.786278602171	0.05
2	30551	1495.886278602171	0.05
2	30551	1495.888695361067	0.05
2	30553	1495.986278602171	0.05
2	30555	1496.086278602171	0.05
2	30557	1496.186278602171	0.05
2	30559	1496.286278602171	0.05
2	30561	1496.386278602171	0.0495
2	30561	1496.386278602171	0.0495
2	30563	1496.486278602171	0.0499
2	30565	1496.586278602171	0.05
2	30567	1496.686278602171	0.05
2	30568	1496.716310068068	0.05
2	30569	1496.786278602171	0.05
2	30571	1496.886278602171	0.05
2	30573	1496.986278602171	0.05
2	30575	1497.086278602171	0.05
2	30577	1497.186278602171	0.05
2	30579	1497.218891807973	0.05
2	30580	1497.286278602171	0.05
2	30582	1497.386278602171	0.05
2	30583	1497.445964734069	0.05
2	30584	1497.486278602171	0.05
2	30586	1497.586278602171	0.05
2	30588	1497.686278602171	0.05
2	30590	1497.786278602171	0.05
2	30592	1497.886278602171	0.05
2	30592	1497.898574848069	0.05
2	30594	1497.986278602171	0.05
2	30596	1498.086278602171	0.05
2	30598	1498.186278602171	0.05
2	30600	1498.286278602171	0.05
2	30602	1498.386278602171	0.05
2	30603	1498.46381236907	0.05
2	30604	1498.486278602171	0.05
2	30606	1498.586278602171	0.05
2	30608	1498.686278602171	0.05
2	30610	1498.786278602171	0.05
2	30612	1498.886278602171	0.05
2	30614	1498.986278602171	0.05
2	30615	1499.046220501071	0.05
2	30616	1499.086278602171	0.05
2	30618	1499.186214570859	0.05
2	30620	1499.286214570859	0.05
2	30622	1499.386214570859	0.05
2	30624	1499.486214570859	0.05
2	30624	1499.487602329071	0.05
2	30626	1499.586214570859	0.05
2	30628	1499.686214570859	0.05
2	30629	1499.753907652071	0.05
2	30630	1499.786214570859	0.05
2	30632	1499.886214570859	0.05
2	30634	1499.986214570859	0.05
2	30636	1500.086214570859	0.05
2	30638	1500.186214570859	0.05
2	30639	1500.248908870071	0.05
2	30640	1500.286214570859	0.05
2	30642	1500.386214570859	0.05
2	30644	1500.486214570859	0.05
2	30646	1500.586214570859	0.05
2	30648	1500.686214570859	0.05
2	30649	1500.758553157071	0.05
2	30650	1500.786214570859	0.05
2	30652	1500.886214570859	0.05
2	30654	1500.986214570859	0.05
2	30656	1501.086214570859	0.05
2	30658	1501.186214570859	0.05
2	30660	1501.286214570859	0.05
2	30660	1501.295215348071	0.05
2	30662	1501.386214570859	0.05
2	30664	1501.486214570859	0.05
2	30666	1501.586214570859	0.05
2	30668	1501.686214570859	0.05
2	30670	1501.786214570859	0.05
2	30670	1501.790229670071	0.05
2	30672	1501.886214570859	0.05
2	30674	1501.986214570859	0.05
2	30676	1502.086214570859	0.05
2	30677	1502.171050477071	0.05
2	30678	1502.186214570859	0.05
2	30680	1502.286214570859	0.05
2	30682	1502.386214570859	0.05
2	30683	1502.471433922071	0.05
2	30684	1502.486214570859	0.05
2	30686	1502.586214570859	0.05
2	30688	1502.686214570859	0.05
2	30690	1502.786214570859	0.05
2	30692	1502.886214570859	0.05
2	30693	1502.942323327071	0.05
2	30694	1502.986214570859	0.05
2	30696	1503.086214570859	0.05
2	30698	1503.186214570859	0.05
2	30699	1503.242177644071	0.05
2	30700	1503.286214570859	0.05
2	30702	1503.386214570859	0.05
2	30704	1503.486214570859	0.05
2	30706	1503.586214570859	0.05
2	30708	1503.686214570859	0.05
2	30709	1503.755370310071	0.05
2	30710	1503.786214570859	0.05
2	30712	1503.886214570859	0.05
2	30714	1503.986214570859	0.05
2	30716	1504.086214570859	0.05
2	30718	1504.186214570859	0.05
2	30720	1504.286214570859	0.05
2	30721	1504.33947349307	0.05
2	30722	1504.386214570859	0.05
2	30724	1504.486214570859	0.05
2	30726	1504.586214570859	0.05
2	30728	1504.686214570859	0.05
2	30730	1504.786214570859	0.05
2	30732	1504.886214570859	0.05
2	30733	1504.98349640807	0.05
2	30734	1504.986214570859	0.05
2	30736	1505.086214570859	0.05
2	30738	1505.186214570859	0.05
2	30740	1505.286214570859	0.05
2	30742	1505.386214570859	0.05
2	30744	1505.486214570859	0.05
2	30746	1505.586214570859	0.05
2	30746	1505.60843449907	0.05
2	30748	1505.686214570859	0.05
2	30750	1505.786214570859	0.05
2	30752	1505.886214570859	0.05
2	30754	1505.986214570859	0.05
2	30756	1506.086214570859	0.05
2	30756	1506.10593069107	0.05
2	30758	1506.186214570859	0.05
2	30760	1506.286214570859	0.05
2	30762	1506.386214570859	0.05
2	30764	1506.486214570859	0.05
2	30766	1506.586214570859	0.05
2	30767	1506.64353649007	0.05
2	30768	1506.686214570859	0.05
2	30770	1506.786214570859	0.05
2	30772	1506.886214570859	0.05
2	30774	1506.986214570859	0.05
2	30776	1507.086214570859	0.05
2	30778	1507.186214570859	0.05
2	30779	1507.222028947069	0.05
2	30780	1507.286214570859	0.05
2	30782	1507.386214570859	0.05
2	30784	1507.486214570859	0.05
2	30784	1507.489035769069	0.05
2	30786	1507.586214570859	0.05
2	30788	1507.686214570859	0.05
2	30790	1507.786214570859	0.05
2	30792	1507.886214570859	0.05
2	30793	1507.953470725069	0.05
2	30794	1507.986214570859	0.05
2	30796	1508.086214570859	0.05
2	30798	1508.186214570859	0.05
2	30800	1508.286214570859	0.05
2	30802	1508.386214570859	0.05
2	30802	1508.397597391069	0.05
2	30804	1508.486214570859	0.05
2	30806	1508.586214570859	0.05
2	30808	1508.686214570859	0.05
2	30810	1508.786214570859	0.05
2	30814	1508.886214570859	0.05
2	30816	1508.986214570859	0.05
2	30818	1509.031002934069	0.05
2	30819	1509.086214570859	0.05
2	30822	1509.186214570859	0.05
2	30825	1509.286214570859	0.05
2	30828	1509.386214570859	0.05
2	30831	1509.486214570859	0.05
2	30831	1509.502771708069	0.05
2	30833	1509.586214570859	0.05
2	30837	1509.686214570859	0.05
2	30839	1509.786214570859	0.05
2	30841	1509.886214570859	0.05
2	30843	1509.986214570859	0.05
2	30843	1509.989898877069	0.05
2	30845	1510.086214570859	0.0495
2	30845	1510.086214570859	0.0495
2	30847	1510.186214570859	0.0495
2	30849	1510.286214570859	0.0495
2	30851	1510.386214570859	0.0495
2	30852	1510.443394480069	0.0495
2	30853	1510.486214570859	0.0495
2	30855	1510.586214570859	0.0495
2	30857	1510.686214570859	0.0495
2	30859	1510.786214570859	0.0495
2	30861	1510.886214570859	0.0495
2	30863	1510.986214570859	0.0495
2	30864	1511.027043907069	0.0495
2	30865	1511.086214570859	0.0495
2	30867	1511.186214570859	0.0495
2	30869	1511.286214570859	0.0495
2	30871	1511.386214570859	0.0495
2	30873	1511.486214570859	0.0495
2	30875	1511.586214570859	0.049005
2	30875	1511.586214570859	0.049005
2	30876	1511.669794789069	0.049005
2	30877	1511.686214570859	0.049005
2	30879	1511.786214570859	0.049005
2	30881	1511.886214570859	0.049005
2	30883	1511.986214570859	0.049005
2	30885	1512.086214570859	0.049005
2	30887	1512.186214570859	0.049005
2	30889	1512.286214570859	0.049005
2	30889	1512.292900921068	0.049005
2	30889	1512.309006234408	0.049005
3	0	0	0.004
3	940	46.974101355068	0
3	1132	56.486875069119	0.004
3	1667	81.668692278864	0
3	1674	81.911954927151	0.004
3	2978	145.783974670656	0
3	3358	164.406742532694	0.004
3	3762	184.153116439229	0
3	3817	186.844743722355	0.004
3	3901	190.85992647913	0
3	4097	200.562365402562	0.004
3	4231	207.201175488667	0
3	4247	207.945812634022	0.004
3	4307	210.79684294685	0
3	4414	216.091117105123	0.004
3	4694	229.903977107877	0
3	4866	238.361532368954	0.004
3	5565	271.137129220269	0
3	7169	350.749768670344	0.004
3	7712	375.850061996171	0
3	7894	384.92670754019	0.004
3	7949	387.634282938582	0
3	8086	394.037090337044	0.004
3	8172	398.210069648799	0
3	8265	402.783625962563	0.004
3	8400	409.441567234871	0
3	8442	411.476013553557	0.004
3	8713	424.726928558442	0
3	9684	472.94216512227	0.004
3	10919	533.062188836769	0
3	11392	556.305316319673	0.004
3	11693	570.42331953538	0
3	12897	629.310739499112	0.004
3	13327	649.799020129844	0
3	13730	669.85508621351	0.004
3	14911	728.04903355069	0
3	14916	728.296017677284	0.004
3	14955	730.148334634045	0
3	14958	730.33059517446	0.004
3	15664	765.390836592482	0
3	16076	785.925238063785	0.004
3	17020	832.360117835635	0
3	17267	844.592535780018	0.004
3	18304	896.088908895977	0
3	18362	898.886456499552	0.004
3	18508	906.114256900576	0
3	18816	921.426334561734	0.004
3	19002	930.379860299365	0
3	19718	965.76621761798	0.004
3	19843	971.495585386036	0
3	20841	1021.280903945147	0.004
3	22079	1080.689592154696	0
3	22512	1102.24197027173	0.004
3	22915	1121.281241000249	0
3	23062	1128.568128735079	0.004
3	23084	1129.454216620434	0
3	23593	1154.595298224113	0.004
3	24044	1176.644717736602	0
3	24409	1194.864836555322	0.004
3	24415	1195.017438955114	0
3	24542	1201.346654385352	0.004
3	25543	1250.285738374443	0
3	26384	1292.068489498104	0.004
3	27310	1337.01847651158	0
3	29009	1420.553038448012	0.004
3	29357	1436.459926289804	0
3	29552	1446.109198857879	0.004
3	30579	1497.218891807973	0
4	0	0	0.004
4	461	23.08057828677	0
4	1458	72.627836814492	0.004
4	1787	87.432206913938	0
4	1942	95.150851112498	0.004
4	2245	110.023505304117	0
4	2872	141.132132250375	0.004
4	2909	142.400170323689	0
4	2999	146.853878434992	0.004
4	3112	152.175174208033	0
4	4986	244.101933139284	0.004
4	5467	266.309391681949	0
4	5609	273.292724770618	0.004
4	7408	360.882637381305	0
4	7597	370.324534144821	0.004
4	7678	374.190576469676	0
4	7991	389.65018428311	0.004
4	8513	414.886688206153	0
4	8521	415.270338510988	0.004
4	8705	424.401151919061	0
4	9070	442.499497023901	0.004
4	9141	445.816158373063	0
4	9996	487.133103258834	0.004
4	10657	520.007073613314	0
4	10948	534.405492885097	0.004
4	11489	560.301658653341	0
4	12494	610.41486319749	0.004
4	12628	615.908198537725	0
4	12948	631.069455827146	0.004
4	13076	637.328021722446	0
4	13123	639.665090361105	0.004
4	15451	754.827435814208	0
4	15607	762.583459824421	0.004
4	17579	859.90056037876	0
4	18228	892.317952761505	0.004
4	19099	935.230368949129	0
4	19246	942.473920983104	0.004
4	19355	947.673324551467	0
4	21049	1030.482743661518	0.004
4	21845	1069.097505375229	0
4	22765	1114.668653932284	0.004
4	22880	1119.585226981914	0
4	23303	1140.389654542362	0.004
4	23645	1156.893098742215	0
4	23652	1157.15063608206	0.004
4	24017	1175.396049393351	0
4	25107	1228.840808787992	0.004
4	25930	1269.598729759681	0
4	25969	1271.496100786343	0.004
4	26331	1289.487668739023	0
4	28336	1388.200322675192	0.004
4	29777	1457.225890871806	0
4	30812	1508.822706903445	0.004
4	30836	1509.628503744903	0
5	0	0	0.004
5	940	46.974101355068	0
5	1132	56.486875069119	0.004
5	1667	81.668692278864	0
5	1674	81.911954927151	0.004
5	2978	145.783974670656	0
5	3358	164.406742532694	0.004
5	3762	184.153116439229	0
5	3817	186.844743722355	0.004
5	3901	190.85992647913	0
5	4097	200.562365402562	0.004
5	4231	207.201175488667	0
5	4247	207.945812634022	0.004
5	4307	210.79684294685	0
5	4414	216.091117105123	0.004
5	4694	229.903977107877	0
5	4866	238.361532368954	0.004
5	5565	271.137129220269	0
5	7169	350.749768670344	0.004
5	7712	375.850061996171	0
5	7894	384.92670754019	0.004
5	7949	387.634282938582	0
5	8086	394.037090337044	0.004
5	8172	398.210069648799	0
5	8265	402.783625962563	0.004
5	8400	409.441567234871	0
5	8442	411.476013553557	0.004
5	8713	424.726928558442	0
5	9684	472.94216512227	0.004
5	10919	533.062188836769	0
5	11392	556.305316319673	0.004
5	11693	570.42331953538	0
5	12897	629.310739499112	0.004
5	13327	649.799020129844	0
5	13730	669.85508621351	0.004
5	14911	728.04903355069	0
5	14916	728.296017677284	0.004
5	14955	730.148334634045	0
5	14958	730.33059517446	0.004
5	15664	765.390836592482	0
5	16076	785.925238063785	0.004
5	17020	832.360117835635	0
5	17267	844.592535780018	0.004
5	18304	896.088908895977	0
5	18362	898.886456499552	0.004
5	18508	906.114256900576	0
5	18816	921.426334561734	0.004
5	19002	930.379860299365	0
5	19718	965.76621761798	0.004
5	19843	971.495585386036	0
5	20841	1021.280903945147	0.004
5	22079	1080.689592154696	0
5	22512	1102.24197027173	0.004
5	22915	1121.281241000249	0
5	23062	1128.568128735079	0.004
5	23084	1129.454216620434	0
5	23593	1154.595298224113	0.004
5	24044	1176.644717736602	0
5	24409	1194.864836555322	0.004
5	24415	1195.017438955114	0
5	24542	1201.346654385352	0.004
5	25543	1250.285738374443	0
5	26384	1292.068489498104	0.004
5	27310	1337.01847651158	0
5	29009	1420.553038448012	0.004
5	29357	1436.459926289804	0
5	29552	1446.109198857879	0.004
5	30579	1497.218891807973	0

