version 2
run Mysterio_ex2-0-20210901-11:07:00-5209
attr configname Mysterio_ex2
attr datetime 20210901-11:07:00
attr experiment Mysterio_ex2
attr inifile omnetpp.ini
attr iterationvars ""
attr iterationvarsf ""
attr measurement ""
attr network MysterioCommunication2
attr processid 5209
attr repetition 0
attr replication #0
attr resultdir results
attr runnumber 0
attr seedset 0
param *.host[*].mobility.numeroDrones 2
param *.numHosts 2
param *.host[*].osgModel "\"3d/drone.ive.100.scale.0,0,90.rot\""
param *.basestation.osgModel "\"3d/car.ive.50.scale.0,0,90.rot\""
param *.canvasVisualizer.energyStorageVisualizer.displayEnergyStorages true
param *.host[*].hasStatus true
param *.host[*].energyStorage.typename "\"SimpleEpEnergyStorage\""
param *.host[*].wlan[*].radio.energyConsumer.typename "\"StateBasedEpEnergyConsumer\""
param *.host[*].energyManagement.typename "\"SimpleEpEnergyManagement\""
param *.host[*].energyStorage.nominalCapacity 0.05J
param *.host[*].energyManagement.nodeShutdownCapacity "0.1 * energyStorage.nominalCapacity"
param *.host[*].energyManagement.nodeStartCapacity "0.5 * energyStorage.nominalCapacity"
param *.host[*].energyStorage.initialCapacity 0.05J
param *.host[*].energyGenerator.typename "\"AlternatingEpEnergyGenerator\""
param *.host[*].energyGenerator.powerGeneration 4mW
param *.host[*].energyGenerator.sleepInterval exponential(25s)
param *.host[*].energyGenerator.generationInterval exponential(25s)
param *.host[*].mobility.typename "\"UAVMobility\""
param *.host[*].mobility.changeInterval 1s
param *.host[*].mobility.initialMovementHeading "uniform(0deg, 360deg)"
param *.host[*].mobility.initialMovementElevation "uniform(-90deg, 90deg)"
param *.host[*].mobility.angleDelta uniform(-10deg,10deg)
param *.host[*].mobility.rotationAxisAngle uniform(-10deg,10deg)
param *.host[*].mobility.speed uniform(10mps,20mps)
param *.host[*].mobility.faceForward false
param *.host[*].mobility.initialX 220m
param *.host[*].mobility.initialY 220m
param *.host[*].mobility.initialZ 80m
param *.visualizer.osgVisualizer.typename "\"IntegratedOsgVisualizer\""
param *.visualizer.osgVisualizer.sceneVisualizer.clearColor "\"skyblue\""
param *.visualizer.osgVisualizer.sceneVisualizer.sceneImage "\"showcases/desert\""
param *.visualizer.osgVisualizer.sceneVisualizer.sceneImageSize 5000m
param *.visualizer.osgVisualizer.sceneVisualizer.axisLength 1000m
param *.visualizer.osgVisualizer.sceneVisualizer.sceneMinX -2000m
param *.visualizer.osgVisualizer.sceneVisualizer.sceneMinY -2000m
param *.visualizer.osgVisualizer.sceneVisualizer.sceneMinZ 0m
param *.visualizer.osgVisualizer.sceneVisualizer.sceneMaxX 3000m
param *.visualizer.osgVisualizer.sceneVisualizer.sceneMaxY 3000m
param *.visualizer.osgVisualizer.sceneVisualizer.sceneMaxZ 1000m
param *.visualizer.osgVisualizer.networkNodeVisualizer.displayModuleName false
param *.visualizer.*.mobilityVisualizer.displayMobility true
param *.visualizer.*.mobilityVisualizer.displayPositions true
param *.visualizer.*.mobilityVisualizer.displayOrientations false
param *.visualizer.*.mobilityVisualizer.displayVelocities true
param *.visualizer.*.mobilityVisualizer.displayMovementTrails true
param *.visualizer.*.mobilityVisualizer.animationSpeed 3
param **.constraintAreaMinX 0m
param **.constraintAreaMinY 0m
param **.constraintAreaMinZ 0m
param **.constraintAreaMaxX 1000m
param **.constraintAreaMaxY 1000m
param **.constraintAreaMaxZ 1000m
param **.networkConfiguratorModule "\"\""

vector 0 MysterioCommunication2.host[0].energyStorage residualEnergyCapacity:vector ETV
attr interpolationmode linear
attr source residualEnergyCapacityChanged
attr title "Residual energy capacity, vector"
vector 1 MysterioCommunication2.host[0].energyGenerator powerGeneration:vector ETV
attr interpolationmode sample-hold
attr source powerGenerationChanged
attr title "Power generation, vector"
vector 2 MysterioCommunication2.host[1].energyStorage residualEnergyCapacity:vector ETV
attr interpolationmode linear
attr source residualEnergyCapacityChanged
attr title "Residual energy capacity, vector"
vector 3 MysterioCommunication2.host[1].energyGenerator powerGeneration:vector ETV
attr interpolationmode sample-hold
attr source powerGenerationChanged
attr title "Power generation, vector"
vector 4 MysterioCommunication2.host[0].energyStorage powerGeneration:vector ETV
attr interpolationmode sample-hold
attr source powerGenerationChanged
attr title "Power generation, vector"
vector 5 MysterioCommunication2.host[1].energyStorage powerGeneration:vector ETV
attr interpolationmode sample-hold
attr source powerGenerationChanged
attr title "Power generation, vector"
0	0	0	0.05
0	0	0.1	0.05
0	2	0.162266269	0.05
0	3	0.2	0.05
0	5	0.3	0.05
0	7	0.4	0.05
0	8	0.454652863	0.05
0	9	0.5	0.05
0	11	0.6	0.05
0	13	0.7	0.05
0	15	0.8	0.05
0	17	0.9	0.05
0	18	0.976962244	0.05
0	19	1	0.05
0	21	1.1	0.05
0	23	1.2	0.05
0	24	1.247416891	0.0495
0	24	1.247416891	0.0495
0	25	1.3	0.049710332436
0	27	1.4	0.05
0	29	1.5	0.05
0	30	1.528974952	0.05
0	31	1.6	0.05
0	33	1.7	0.05
0	35	1.8	0.05
0	37	1.9	0.05
0	38	1.963859113	0.05
0	39	2	0.05
0	41	2.1	0.05
0	43	2.2	0.05
0	45	2.3	0.05
0	47	2.4	0.05
0	48	2.486412565	0.05
0	49	2.5	0.05
0	51	2.6	0.05
0	53	2.7	0.05
0	55	2.8	0.05
0	57	2.9	0.05
0	58	2.917448671	0.05
0	59	3	0.05
0	61	3.1	0.05
0	62	3.11166454	0.05
0	63	3.2	0.05
0	65	3.3	0.05
0	67	3.4	0.05
0	68	3.498437437	0.05
0	69	3.5	0.05
0	71	3.6	0.05
0	73	3.7	0.05
0	75	3.8	0.05
0	77	3.9	0.05
0	78	3.991406653	0.0495
0	78	3.991406653	0.0495
0	79	4	0.049534373388
0	81	4.1	0.049934373388
0	83	4.2	0.05
0	84	4.279233046	0.05
0	85	4.3	0.05
0	87	4.4	0.05
0	89	4.5	0.05
0	90	4.553973118	0.05
0	91	4.6	0.05
0	93	4.7	0.05
0	95	4.8	0.05
0	97	4.9	0.05
0	98	4.951105159	0.05
0	99	5	0.05
0	101	5.1	0.05
0	103	5.2	0.05
0	104	5.223709855	0.0495
0	104	5.223709855	0.0495
0	105	5.3	0.04980516058
0	107	5.4	0.05
0	109	5.5	0.05
0	111	5.6	0.05
0	112	5.692360627	0.05
0	113	5.7	0.05
0	115	5.8	0.05
0	117	5.9	0.05
0	119	6	0.05
0	121	6.1	0.05
0	122	6.118425121	0.05
0	123	6.2	0.05
0	125	6.3	0.05
0	127	6.4	0.05
0	129	6.5	0.05
0	130	6.540037564	0.05
0	131	6.6	0.05
0	133	6.7	0.05
0	135	6.8	0.05
0	137	6.9	0.05
0	139	7	0.05
0	141	7.1	0.05
0	142	7.164772681	0.05
0	143	7.2	0.05
0	145	7.3	0.05
0	147	7.4	0.05
0	149	7.5	0.05
0	151	7.6	0.05
0	153	7.7	0.05
0	154	7.738447558	0.05
0	155	7.8	0.05
0	157	7.9	0.05
0	159	8	0.05
0	161	8.1	0.05
0	163	8.2	0.05
0	165	8.3	0.05
0	166	8.311253458	0.05
0	167	8.4	0.05
0	169	8.5	0.05
0	171	8.6	0.05
0	173	8.7	0.05
0	174	8.791016113	0.05
0	175	8.8	0.05
0	177	8.9	0.05
0	179	9	0.05
0	180	9.089628766	0.05
0	181	9.1	0.05
0	183	9.2	0.05
0	185	9.3	0.05
0	187	9.4	0.05
0	189	9.5	0.05
0	191	9.6	0.05
0	192	9.658838299	0.05
0	193	9.7	0.05
0	195	9.8	0.05
0	197	9.9	0.05
0	198	9.904930174	0.05
0	199	10	0.05
0	201	10.1	0.05
0	202	10.166518621	0.05
0	203	10.2	0.05
0	205	10.3	0.05
0	207	10.4	0.05
0	209	10.5	0.05
0	211	10.6	0.05
0	212	10.605051454	0.05
0	213	10.7	0.05
0	215	10.8	0.05
0	217	10.9	0.05
0	219	11	0.05
0	220	11.038924213	0.05
0	221	11.1	0.05
0	223	11.2	0.05
0	225	11.3	0.05
0	227	11.4	0.05
0	228	11.439247477	0.05
0	229	11.5	0.05
0	231	11.6	0.05
0	233	11.7	0.05
0	234	11.709083446	0.05
0	235	11.8	0.05
0	237	11.9	0.05
0	239	12	0.05
0	241	12.1	0.05
0	242	12.184559215	0.0495
0	242	12.184559215	0.0495
0	243	12.2	0.04956176314
0	245	12.3	0.04996176314
0	247	12.4	0.05
0	248	12.443868421	0.05
0	249	12.5	0.05
0	251	12.6	0.05
0	253	12.7	0.05
0	255	12.8	0.05
0	257	12.9	0.05
0	258	12.906938641	0.05
0	259	13	0.05
0	261	13.1	0.05
0	263	13.2	0.05
0	264	13.205044474	0.05
0	265	13.3	0.05
0	267	13.4	0.05
0	268	13.476501694	0.0495
0	268	13.476501694	0.0495
0	269	13.5	0.049593993224
0	271	13.6	0.049993993224
0	273	13.7	0.05
0	275	13.8	0.05
0	277	13.9	0.05
0	279	14	0.05
0	280	14.04776194	0.05
0	281	14.1	0.05
0	283	14.2	0.05
0	285	14.3	0.05
0	287	14.4	0.05
0	288	14.493735622	0.05
0	289	14.5	0.05
0	291	14.6	0.05
0	293	14.7	0.05
0	295	14.8	0.05
0	297	14.9	0.05
0	298	14.967179797	0.05
0	299	15	0.05
0	301	15.1	0.05
0	303	15.2	0.05
0	305	15.3	0.05
0	307	15.4	0.05
0	308	15.428234851	0.05
0	309	15.5	0.05
0	311	15.6	0.05
0	313	15.7	0.05
0	315	15.8	0.05
0	316	15.85197187	0.05
0	317	15.9	0.05
0	319	16	0.05
0	321	16.1	0.05
0	323	16.2	0.05
0	324	16.290027016	0.0495
0	324	16.290027016	0.0495
0	325	16.3	0.049539891936
0	327	16.4	0.049939891936
0	329	16.5	0.05
0	331	16.6	0.05
0	333	16.7	0.05
0	334	16.760411038	0.05
0	335	16.8	0.05
0	337	16.9	0.05
0	339	17	0.05
0	341	17.1	0.05
0	342	17.190605131	0.05
0	343	17.2	0.05
0	345	17.3	0.05
0	347	17.4	0.05
0	348	17.49052153	0.05
0	349	17.5	0.05
0	351	17.6	0.05
0	353	17.7	0.05
0	355	17.8	0.05
0	356	17.889483334	0.05
0	357	17.9	0.05
0	359	18	0.05
0	361	18.1	0.05
0	363	18.2	0.05
0	365	18.3	0.05
0	366	18.375226642	0.05
0	367	18.4	0.05
0	369	18.5	0.05
0	371	18.6	0.05
0	373	18.7	0.05
0	375	18.8	0.05
0	377	18.9	0.05
0	378	18.951883024	0.05
0	379	19	0.05
0	381	19.1	0.05
0	382	19.180052473	0.05
0	383	19.2	0.05
0	385	19.3	0.05
0	387	19.4	0.05
0	389	19.5	0.05
0	391	19.6	0.05
0	392	19.645722376	0.05
0	393	19.7	0.05
0	395	19.8	0.05
0	397	19.9	0.05
0	399	20	0.05
0	400	20.092233664	0.05
0	401	20.1	0.05
0	403	20.2	0.05
0	405	20.3	0.05
0	407	20.4	0.05
0	409	20.5	0.05
0	410	20.57557615	0.05
0	411	20.6	0.05
0	413	20.7	0.05
0	415	20.8	0.05
0	416	20.847806635	0.05
0	417	20.9	0.05
0	419	21	0.05
0	421	21.1	0.05
0	423	21.2	0.05
0	424	21.278224507	0.05
0	425	21.3	0.05
0	427	21.4	0.05
0	429	21.5	0.05
0	431	21.6	0.05
0	433	21.7	0.05
0	434	21.711689875	0.0495
0	434	21.711689875	0.0495
0	435	21.8	0.0498532405
0	437	21.9	0.05
0	439	22	0.05
0	441	22.1	0.05
0	443	22.2	0.05
0	444	22.213391878	0.05
0	445	22.3	0.05
0	447	22.4	0.05
0	449	22.5	0.05
0	451	22.6	0.05
0	453	22.7	0.05
0	454	22.76688982	0.05
0	455	22.8	0.05
0	457	22.9	0.05
0	459	23	0.05
0	461	23.08057828677	0.05
0	462	23.1	0.05
0	464	23.2	0.0495
0	464	23.2	0.0495
0	465	23.24411578	0.0495
0	466	23.3	0.0495
0	468	23.4	0.0495
0	470	23.5	0.0495
0	472	23.6	0.0495
0	473	23.670353893	0.0495
0	474	23.7	0.0495
0	476	23.8	0.0495
0	478	23.9	0.0495
0	479	23.914690039	0.0495
0	480	24	0.0495
0	482	24.1	0.0495
0	484	24.2	0.0495
0	486	24.3	0.0495
0	487	24.379749265	0.0495
0	488	24.4	0.0495
0	490	24.5	0.049005
0	490	24.5	0.049005
0	492	24.6	0.049005
0	493	24.661576129	0.049005
0	494	24.7	0.049005
0	496	24.8	0.049005
0	498	24.9	0.049005
0	500	25	0.049005
0	501	25.075897954	0.049005
0	502	25.1	0.049005
0	504	25.2	0.049005
0	506	25.3	0.049005
0	508	25.4	0.049005
0	509	25.471056895	0.049005
0	510	25.5	0.049005
0	512	25.6	0.049005
0	514	25.7	0.049005
0	516	25.8	0.049005
0	518	25.9	0.04851495
0	518	25.9	0.04851495
0	519	25.904126215	0.04851495
0	520	26	0.04851495
0	522	26.1	0.04851495
0	524	26.2	0.04851495
0	526	26.3	0.04851495
0	528	26.4	0.04851495
0	529	26.417049976	0.04851495
0	530	26.5	0.04851495
0	532	26.6	0.04851495
0	534	26.7	0.04851495
0	536	26.8	0.04851495
0	537	26.878397032	0.04851495
0	538	26.9	0.04851495
0	540	27	0.04851495
0	542	27.1	0.04851495
0	544	27.2	0.04851495
0	546	27.3	0.0480298005
0	546	27.3	0.0480298005
0	547	27.353179723	0.0480298005
0	548	27.4	0.0480298005
0	550	27.5	0.0480298005
0	552	27.6	0.0480298005
0	554	27.7	0.0480298005
0	556	27.8	0.0480298005
0	557	27.827184556	0.0480298005
0	558	27.9	0.0480298005
0	560	28	0.0480298005
0	562	28.1	0.0480298005
0	564	28.2	0.0480298005
0	565	28.277459665	0.0480298005
0	566	28.3	0.0480298005
0	568	28.4	0.0480298005
0	570	28.5	0.0480298005
0	572	28.6	0.0480298005
0	574	28.7	0.047549502495
0	574	28.7	0.047549502495
0	575	28.720266508	0.047549502495
0	576	28.8	0.047549502495
0	578	28.9	0.047549502495
0	580	29	0.047549502495
0	581	29.011381231	0.047549502495
0	582	29.1	0.047549502495
0	584	29.2	0.047549502495
0	586	29.3	0.047549502495
0	588	29.4	0.047549502495
0	589	29.458787605	0.047549502495
0	590	29.5	0.047549502495
0	592	29.6	0.047549502495
0	594	29.7	0.047549502495
0	595	29.73049294	0.047549502495
0	596	29.8	0.047549502495
0	598	29.9	0.047549502495
0	600	30	0.04707400747005
0	600	30	0.04707400747005
0	602	30.1	0.04707400747005
0	603	30.188375107	0.04707400747005
0	604	30.2	0.04707400747005
0	606	30.3	0.04707400747005
0	608	30.4	0.04707400747005
0	610	30.5	0.04707400747005
0	612	30.6	0.04707400747005
0	614	30.7	0.04707400747005
0	615	30.723647959	0.04707400747005
0	616	30.8	0.04707400747005
0	618	30.9	0.04707400747005
0	620	31	0.04707400747005
0	622	31.1	0.04707400747005
0	623	31.172552605	0.04707400747005
0	624	31.2	0.04707400747005
0	626	31.3	0.04707400747005
0	628	31.4	0.04660326739535
0	628	31.4	0.04660326739535
0	629	31.414447132	0.04660326739535
0	630	31.5	0.04660326739535
0	632	31.6	0.04660326739535
0	634	31.7	0.04660326739535
0	635	31.711022782	0.04660326739535
0	636	31.8	0.04660326739535
0	638	31.9	0.04660326739535
0	640	32	0.04660326739535
0	642	32.1	0.04660326739535
0	644	32.2	0.04660326739535
0	645	32.243421238	0.04660326739535
0	646	32.3	0.04660326739535
0	648	32.4	0.04660326739535
0	650	32.5	0.04660326739535
0	652	32.6	0.04660326739535
0	654	32.7	0.04660326739535
0	655	32.738558464	0.04660326739535
0	656	32.8	0.04660326739535
0	658	32.9	0.04660326739535
0	660	33	0.04660326739535
0	662	33.1	0.04660326739535
0	663	33.169987102	0.04660326739535
0	664	33.2	0.04660326739535
0	666	33.3	0.04660326739535
0	668	33.4	0.04660326739535
0	670	33.5	0.04660326739535
0	672	33.6	0.04660326739535
0	673	33.649423846	0.04660326739535
0	674	33.7	0.04660326739535
0	676	33.8	0.04660326739535
0	678	33.9	0.04660326739535
0	680	34	0.04660326739535
0	682	34.1	0.04660326739535
0	684	34.2	0.046137234721396
0	684	34.2	0.046137234721396
0	685	34.244328292	0.046137234721396
0	686	34.3	0.046137234721396
0	688	34.4	0.046137234721396
0	690	34.5	0.046137234721396
0	692	34.6	0.046137234721396
0	694	34.7	0.046137234721396
0	696	34.8	0.046137234721396
0	697	34.861106299	0.046137234721396
0	698	34.9	0.046137234721396
0	700	35	0.046137234721396
0	702	35.1	0.046137234721396
0	704	35.2	0.046137234721396
0	706	35.3	0.046137234721396
0	707	35.303816284	0.046137234721396
0	708	35.4	0.046137234721396
0	710	35.5	0.046137234721396
0	712	35.6	0.045675862374182
0	712	35.6	0.045675862374182
0	714	35.7	0.045675862374182
0	716	35.8	0.045675862374182
0	718	35.9	0.045675862374182
0	719	35.968219723	0.045675862374182
0	720	36	0.045675862374182
0	722	36.1	0.045675862374182
0	724	36.2	0.045675862374182
0	726	36.3	0.045675862374182
0	728	36.4	0.045675862374182
0	730	36.5	0.045675862374182
0	731	36.56376052	0.045675862374182
0	732	36.6	0.045675862374182
0	734	36.7	0.045675862374182
0	736	36.8	0.045675862374182
0	738	36.9	0.045675862374182
0	740	37	0.045675862374182
0	742	37.1	0.04521910375044
0	742	37.1	0.04521910375044
0	743	37.144077058	0.04521910375044
0	744	37.2	0.04521910375044
0	746	37.3	0.04521910375044
0	748	37.4	0.04521910375044
0	750	37.5	0.04521910375044
0	752	37.6	0.04521910375044
0	753	37.641899869	0.04521910375044
0	754	37.7	0.04521910375044
0	756	37.8	0.04521910375044
0	758	37.9	0.04521910375044
0	759	37.93510984	0.04521910375044
0	760	38	0.04521910375044
0	762	38.1	0.04521910375044
0	764	38.2	0.04521910375044
0	766	38.3	0.04521910375044
0	767	38.391197983	0.04521910375044
0	768	38.4	0.044766912712936
0	768	38.4	0.044766912712936
0	770	38.5	0.044766912712936
0	772	38.6	0.044766912712936
0	774	38.7	0.044766912712936
0	775	38.787982867	0.044766912712936
0	776	38.8	0.044766912712936
0	778	38.9	0.044766912712936
0	780	39	0.044766912712936
0	782	39.1	0.044766912712936
0	784	39.2	0.044766912712936
0	785	39.231220984	0.044766912712936
0	786	39.3	0.044766912712936
0	788	39.4	0.044766912712936
0	790	39.5	0.044766912712936
0	792	39.6	0.044766912712936
0	793	39.670526272	0.044766912712936
0	794	39.7	0.044766912712936
0	796	39.8	0.044319243585806
0	796	39.8	0.044319243585806
0	798	39.9	0.044319243585806
0	799	39.931805614	0.044319243585806
0	800	40	0.044319243585806
0	802	40.1	0.044319243585806
0	804	40.2	0.044319243585806
0	806	40.3	0.044319243585806
0	808	40.4	0.044319243585806
0	809	40.449556825	0.044319243585806
0	810	40.5	0.044319243585806
0	812	40.6	0.044319243585806
0	814	40.7	0.044319243585806
0	816	40.8	0.044319243585806
0	818	40.9	0.044319243585806
0	820	41	0.044319243585806
0	821	41.044757824	0.044319243585806
0	822	41.1	0.044319243585806
0	824	41.2	0.043876051149948
0	824	41.2	0.043876051149948
0	826	41.3	0.043876051149948
0	828	41.4	0.043876051149948
0	830	41.5	0.043876051149948
0	832	41.6	0.043876051149948
0	833	41.69120731	0.043876051149948
0	834	41.7	0.043876051149948
0	836	41.8	0.043876051149948
0	838	41.9	0.043876051149948
0	840	42	0.043876051149948
0	842	42.1	0.043876051149948
0	844	42.2	0.043876051149948
0	846	42.3	0.043876051149948
0	847	42.377392558	0.043876051149948
0	848	42.4	0.043876051149948
0	850	42.5	0.043876051149948
0	852	42.6	0.043876051149948
0	854	42.7	0.043437290638449
0	854	42.7	0.043437290638449
0	856	42.8	0.043437290638449
0	858	42.9	0.043437290638449
0	860	43	0.043437290638449
0	861	43.008370606	0.043437290638449
0	862	43.1	0.043437290638449
0	864	43.2	0.043437290638449
0	866	43.3	0.043437290638449
0	868	43.4	0.043437290638449
0	870	43.5	0.043437290638449
0	872	43.6	0.043437290638449
0	873	43.66050085	0.043437290638449
0	874	43.7	0.043437290638449
0	876	43.8	0.043437290638449
0	878	43.9	0.043437290638449
0	880	44	0.043437290638449
0	882	44.1	0.043437290638449
0	884	44.2	0.043002917732064
0	884	44.2	0.043002917732064
0	885	44.219773516	0.043002917732064
0	886	44.3	0.043002917732064
0	888	44.4	0.043002917732064
0	890	44.5	0.043002917732064
0	892	44.6	0.043002917732064
0	893	44.681601115	0.043002917732064
0	894	44.7	0.043002917732064
0	896	44.8	0.043002917732064
0	898	44.9	0.043002917732064
0	899	44.92139689	0.043002917732064
0	900	45	0.043002917732064
0	902	45.1	0.043002917732064
0	904	45.2	0.043002917732064
0	906	45.3	0.043002917732064
0	907	45.377350771	0.043002917732064
0	908	45.4	0.043002917732064
0	910	45.5	0.042572888554744
0	910	45.5	0.042572888554744
0	912	45.6	0.042572888554744
0	914	45.7	0.042572888554744
0	916	45.8	0.042572888554744
0	918	45.9	0.042572888554744
0	920	46	0.042572888554744
0	921	46.02201481	0.042572888554744
0	922	46.1	0.042572888554744
0	924	46.2	0.042572888554744
0	926	46.3	0.042572888554744
0	928	46.4	0.042572888554744
0	930	46.5	0.042572888554744
0	931	46.510351954	0.042572888554744
0	932	46.6	0.042572888554744
0	934	46.7	0.042572888554744
0	935	46.783391482	0.042572888554744
0	936	46.8	0.042572888554744
0	938	46.9	0.042147159669196
0	938	46.9	0.042147159669196
0	941	47	0.042147159669196
0	943	47.1	0.042147159669196
0	944	47.194865566	0.042147159669196
0	945	47.2	0.042147159669196
0	947	47.3	0.042147159669196
0	949	47.4	0.042147159669196
0	951	47.5	0.042147159669196
0	953	47.6	0.042147159669196
0	955	47.7	0.042147159669196
0	956	47.740044739	0.042147159669196
0	957	47.8	0.042147159669196
0	959	47.9	0.042147159669196
0	961	48	0.042147159669196
0	963	48.1	0.042147159669196
0	965	48.2	0.042147159669196
0	967	48.3	0.042147159669196
0	968	48.340196431	0.042147159669196
0	969	48.4	0.042147159669196
0	971	48.5	0.042147159669196
0	973	48.6	0.042147159669196
0	975	48.7	0.042147159669196
0	977	48.8	0.042147159669196
0	978	48.856204474	0.042147159669196
0	979	48.9	0.042147159669196
0	981	49	0.042147159669196
0	983	49.1	0.042147159669196
0	984	49.129369168	0.042147159669196
0	985	49.2	0.042147159669196
0	987	49.3	0.042147159669196
0	989	49.4	0.042147159669196
0	991	49.5	0.042147159669196
0	992	49.598448496	0.042147159669196
0	993	49.6	0.042147159669196
0	995	49.7	0.042147159669196
0	997	49.8	0.042147159669196
0	998	49.879696909	0.042147159669196
0	999	49.9	0.042147159669196
0	1001	50	0.042147159669196
0	1003	50.1	0.042147159669196
0	1005	50.2	0.042147159669196
0	1007	50.3	0.042147159669196
0	1008	50.36554573	0.042147159669196
0	1009	50.4	0.042147159669196
0	1011	50.5	0.042147159669196
0	1013	50.6	0.042147159669196
0	1016	50.7	0.042147159669196
0	1018	50.8	0.042147159669196
0	1018	50.836969762	0.042147159669196
0	1020	50.9	0.042147159669196
0	1022	51	0.041725688072504
0	1022	51	0.041725688072504
0	1023	51.090123721	0.041725688072504
0	1024	51.1	0.041725688072504
0	1026	51.2	0.041725688072504
0	1028	51.3	0.041725688072504
0	1030	51.4	0.041725688072504
0	1032	51.5	0.041725688072504
0	1034	51.6	0.041725688072504
0	1034	51.6145609	0.041725688072504
0	1036	51.7	0.041725688072504
0	1038	51.8	0.041725688072504
0	1039	51.895731436	0.041725688072504
0	1040	51.9	0.041725688072504
0	1042	52	0.041725688072504
0	1044	52.1	0.041725688072504
0	1046	52.2	0.041725688072504
0	1048	52.3	0.041725688072504
0	1048	52.378746121	0.041308431191779
0	1048	52.378746121	0.041308431191779
0	1050	52.4	0.041308431191779
0	1052	52.5	0.041308431191779
0	1054	52.6	0.041308431191779
0	1056	52.7	0.041308431191779
0	1058	52.8	0.041308431191779
0	1058	52.864190998	0.041308431191779
0	1060	52.9	0.041308431191779
0	1062	53	0.041308431191779
0	1064	53.1	0.041308431191779
0	1066	53.2	0.041308431191779
0	1068	53.3	0.041308431191779
0	1070	53.4	0.041308431191779
0	1070	53.412273862	0.041308431191779
0	1072	53.5	0.041308431191779
0	1074	53.6	0.041308431191779
0	1076	53.7	0.041308431191779
0	1078	53.8	0.040895346879862
0	1078	53.8	0.040895346879862
0	1078	53.815946665	0.040895346879862
0	1080	53.9	0.040895346879862
0	1082	54	0.040895346879862
0	1084	54.1	0.040895346879862
0	1086	54.2	0.040895346879862
0	1086	54.270847717	0.040895346879862
0	1088	54.3	0.040895346879862
0	1090	54.4	0.040895346879862
0	1092	54.5	0.040895346879862
0	1094	54.6	0.040895346879862
0	1096	54.7	0.040895346879862
0	1098	54.8	0.040895346879862
0	1100	54.9	0.040895346879862
0	1100	54.913351396	0.040895346879862
0	1102	55	0.040895346879862
0	1104	55.1	0.040895346879862
0	1106	55.2	0.040486393411063
0	1106	55.2	0.040486393411063
0	1108	55.3	0.040486393411063
0	1110	55.4	0.040486393411063
0	1110	55.481333326	0.040486393411063
0	1112	55.5	0.040486393411063
0	1114	55.6	0.040486393411063
0	1117	55.7	0.040486393411063
0	1120	55.8	0.040486393411063
0	1123	55.9	0.040486393411063
0	1125	56	0.040486393411063
0	1125	56.039581906	0.040486393411063
0	1127	56.1	0.040486393411063
0	1129	56.2	0.040486393411063
0	1131	56.3	0.040486393411063
0	1133	56.4	0.040486393411063
0	1135	56.5	0.040486393411063
0	1137	56.6	0.040486393411063
0	1137	56.668208764	0.040486393411063
0	1139	56.7	0.040486393411063
0	1140	56.769634267061	0.040486393411063
0	1142	56.869634267061	0.040486393411063
0	1144	56.969634267061	0.040486393411063
0	1147	57.069634267061	0.040486393411063
0	1149	57.169634267061	0.040486393411063
0	1151	57.269634267061	0.040486393411063
0	1152	57.319197049	0.040486393411063
0	1153	57.369634267061	0.040486393411063
0	1155	57.469634267061	0.040486393411063
0	1157	57.569634267061	0.040486393411063
0	1159	57.669634267061	0.040486393411063
0	1161	57.769634267061	0.040486393411063
0	1163	57.869634267061	0.040486393411063
0	1164	57.968015479	0.040081529476952
0	1164	57.968015479	0.040081529476952
0	1165	57.969634267061	0.040081529476952
0	1167	58.069634267061	0.040081529476952
0	1169	58.169634267061	0.040081529476952
0	1171	58.269634267061	0.040081529476952
0	1173	58.369634267061	0.040081529476952
0	1175	58.469634267061	0.040081529476952
0	1176	58.516155283	0.040081529476952
0	1177	58.569634267061	0.040081529476952
0	1179	58.669634267061	0.040081529476952
0	1181	58.769634267061	0.040081529476952
0	1183	58.869634267061	0.040081529476952
0	1184	58.952198866	0.040081529476952
0	1185	58.969634267061	0.040081529476952
0	1187	59.069634267061	0.040081529476952
0	1189	59.169634267061	0.040081529476952
0	1191	59.269634267061	0.040081529476952
0	1192	59.350143889	0.039680714182183
0	1192	59.350143889	0.039680714182183
0	1193	59.369634267061	0.039680714182183
0	1195	59.469634267061	0.039680714182183
0	1197	59.569634267061	0.039680714182183
0	1199	59.669634267061	0.039680714182183
0	1201	59.769634267061	0.039680714182183
0	1202	59.825749462	0.039680714182183
0	1203	59.869634267061	0.039680714182183
0	1205	59.885682236611	0.039680714182183
0	1206	59.965503691065	0.04
0	1207	59.969634267061	0.040016522303984
0	1209	60.069634267061	0.040416522303984
0	1211	60.090503691065	0.0405
0	1212	60.169634267061	0.040816522303984
0	1214	60.215503691065	0.041
0	1214	60.253637029	0.04115253335174
0	1215	60.269634267061	0.041216522303984
0	1217	60.340503691065	0.0415
0	1218	60.369634267061	0.041616522303984
0	1220	60.465503691065	0.042
0	1221	60.469634267061	0.042016522303984
0	1223	60.569634267061	0.042416522303984
0	1225	60.590503691065	0.0425
0	1225	60.642460375	0.04270782673574
0	1226	60.669634267061	0.042816522303984
0	1228	60.715503691065	0.043
0	1229	60.769634267061	0.043216522303984
0	1231	60.840503691065	0.0435
0	1232	60.869634267061	0.043616522303984
0	1233	60.929177026	0.04385469333974
0	1234	60.965503691065	0.044
0	1235	60.969634267061	0.044016522303984
0	1237	61.069634267061	0.044416522303984
0	1239	61.090503691065	0.0445
0	1240	61.169634267061	0.044816522303984
0	1242	61.215503691065	0.045
0	1243	61.269634267061	0.045216522303984
0	1245	61.340503691065	0.0455
0	1246	61.369634267061	0.045616522303984
0	1247	61.416594829	0.04580436455174
0	1248	61.465503691065	0.046
0	1249	61.469634267061	0.046016522303984
0	1251	61.569634267061	0.046416522303984
0	1253	61.590503691065	0.0465
0	1254	61.669634267061	0.046816522303984
0	1256	61.715503691065	0.047
0	1257	61.769634267061	0.047216522303984
0	1259	61.840503691065	0.0475
0	1260	61.869634267061	0.047616522303984
0	1260	61.877552221	0.04764819411974
0	1262	61.965503691065	0.048
0	1263	61.969634267061	0.048016522303984
0	1265	62.069634267061	0.048416522303984
0	1267	62.090503691065	0.0485
0	1267	62.150825953	0.04874128904774
0	1268	62.169634267061	0.048816522303984
0	1270	62.215503691065	0.049
0	1271	62.269634267061	0.049216522303984
0	1273	62.340503691065	0.0495
0	1274	62.369634267061	0.049616522303984
0	1275	62.440518208	0.04990005806774
0	1276	62.465503691065	0.05
0	1277	62.469634267061	0.05
0	1279	62.569634267061	0.05
0	1281	62.669634267061	0.05
0	1283	62.769634267061	0.05
0	1285	62.869634267061	0.05
0	1287	62.969634267061	0.05
0	1288	63.007619218	0.05
0	1289	63.069634267061	0.05
0	1291	63.169634267061	0.05
0	1293	63.269634267061	0.05
0	1295	63.369634267061	0.05
0	1297	63.469634267061	0.05
0	1298	63.527461285	0.05
0	1299	63.569634267061	0.05
0	1301	63.669634267061	0.05
0	1303	63.769634267061	0.05
0	1305	63.869634267061	0.05
0	1307	63.969634267061	0.05
0	1307	63.982288249	0.05
0	1309	64.069634267061	0.05
0	1311	64.169634267061	0.05
0	1313	64.269634267061	0.05
0	1313	64.281521758	0.05
0	1315	64.369634267061	0.05
0	1317	64.469634267061	0.05
0	1319	64.569634267061	0.05
0	1321	64.669634267061	0.05
0	1323	64.769634267061	0.05
0	1325	64.869634267061	0.05
0	1326	64.960805401	0.05
0	1327	64.969634267061	0.05
0	1329	65.069634267061	0.05
0	1331	65.169634267061	0.05
0	1333	65.269634267061	0.05
0	1335	65.369634267061	0.05
0	1337	65.469634267061	0.05
0	1338	65.521414966	0.05
0	1339	65.569634267061	0.05
0	1341	65.669634267061	0.05
0	1343	65.769634267061	0.05
0	1345	65.869634267061	0.05
0	1346	65.964028837	0.05
0	1347	65.969634267061	0.05
0	1349	66.069634267061	0.05
0	1351	66.169634267061	0.05
0	1352	66.251542906	0.05
0	1353	66.269634267061	0.05
0	1355	66.369634267061	0.05
0	1357	66.469634267061	0.05
0	1358	66.547064632	0.05
0	1359	66.569634267061	0.05
0	1361	66.669634267061	0.05
0	1363	66.769634267061	0.05
0	1365	66.869634267061	0.05
0	1367	66.969634267061	0.05
0	1369	67.069634267061	0.05
0	1370	67.145498194	0.05
0	1371	67.169634267061	0.05
0	1373	67.269634267061	0.05
0	1375	67.369634267061	0.05
0	1377	67.469634267061	0.05
0	1379	67.569634267061	0.05
0	1381	67.669634267061	0.05
0	1383	67.769634267061	0.05
0	1384	67.789446802	0.05
0	1385	67.869634267061	0.05
0	1387	67.969634267061	0.05
0	1389	68.069634267061	0.05
0	1391	68.169634267061	0.05
0	1393	68.269634267061	0.05
0	1395	68.369634267061	0.05
0	1396	68.429347078	0.05
0	1397	68.469634267061	0.05
0	1399	68.569634267061	0.05
0	1401	68.669634267061	0.05
0	1403	68.769634267061	0.05
0	1405	68.869634267061	0.05
0	1406	68.920022893	0.05
0	1407	68.969634267061	0.05
0	1409	69.069634267061	0.05
0	1411	69.169634267061	0.05
0	1413	69.269634267061	0.05
0	1415	69.369634267061	0.05
0	1415	69.383391202	0.05
0	1417	69.469634267061	0.05
0	1419	69.569634267061	0.05
0	1421	69.669634267061	0.05
0	1421	69.682347055	0.05
0	1423	69.769634267061	0.05
0	1425	69.869634267061	0.05
0	1426	69.922004728	0.05
0	1427	69.969634267061	0.05
0	1429	70.069634267061	0.05
0	1431	70.169634267061	0.05
0	1433	70.269634267061	0.05
0	1435	70.369634267061	0.05
0	1436	70.390198108	0.05
0	1437	70.469634267061	0.05
0	1439	70.569634267061	0.05
0	1441	70.669634267061	0.05
0	1443	70.769634267061	0.05
0	1444	70.845893989	0.05
0	1445	70.869634267061	0.05
0	1447	70.969634267061	0.05
0	1449	71.069634267061	0.05
0	1450	71.132824906	0.05
0	1451	71.169634267061	0.05
0	1453	71.269634267061	0.05
0	1455	71.369634267061	0.05
0	1457	71.469634267061	0.05
0	1459	71.569634267061	0.05
0	1459	71.578657285	0.05
0	1461	71.669634267061	0.05
0	1463	71.769634267061	0.05
0	1465	71.869634267061	0.05
0	1467	71.969634267061	0.05
0	1469	72.069634267061	0.05
0	1470	72.087145369	0.05
0	1471	72.169634267061	0.05
0	1473	72.269634267061	0.05
0	1477	72.369634267061	0.05
0	1479	72.469634267061	0.05
0	1482	72.569634267061	0.05
0	1483	72.586875346	0.05
0	1485	72.669634267061	0.05
0	1488	72.769634267061	0.05
0	1491	72.869634267061	0.05
0	1493	72.969634267061	0.05
0	1496	73.069634267061	0.05
0	1498	73.123587706	0.05
0	1499	73.169634267061	0.05
0	1502	73.269634267061	0.05
0	1505	73.369634267061	0.05
0	1507	73.469634267061	0.05
0	1510	73.569634267061	0.05
0	1512	73.623555271	0.05
0	1513	73.669634267061	0.05
0	1515	73.769634267061	0.05
0	1517	73.869634267061	0.05
0	1519	73.969634267061	0.05
0	1521	74.069634267061	0.05
0	1522	74.114462107	0.05
0	1523	74.169634267061	0.05
0	1525	74.269634267061	0.05
0	1527	74.369634267061	0.05
0	1529	74.469634267061	0.05
0	1531	74.569634267061	0.05
0	1532	74.643107428	0.0495
0	1532	74.643107428	0.0495
0	1533	74.669634267061	0.049606107356244
0	1535	74.769634267061	0.05
0	1537	74.869634267061	0.05
0	1539	74.969634267061	0.05
0	1541	75.069634267061	0.05
0	1543	75.169634267061	0.05
0	1545	75.269634267061	0.05
0	1546	75.295802677	0.05
0	1547	75.369634267061	0.05
0	1549	75.469634267061	0.05
0	1551	75.569634267061	0.05
0	1553	75.669634267061	0.05
0	1555	75.769634267061	0.05
0	1556	75.862848682	0.05
0	1557	75.869634267061	0.05
0	1559	75.969634267061	0.05
0	1561	76.069634267061	0.05
0	1563	76.169634267061	0.05
0	1565	76.269634267061	0.05
0	1566	76.296139627	0.05
0	1567	76.369634267061	0.05
0	1569	76.469634267061	0.05
0	1571	76.569634267061	0.05
0	1573	76.669634267061	0.05
0	1575	76.769634267061	0.05
0	1577	76.869634267061	0.05
0	1578	76.900342624	0.05
0	1579	76.969634267061	0.05
0	1581	77.069634267061	0.05
0	1583	77.169634267061	0.05
0	1585	77.269634267061	0.05
0	1587	77.369634267061	0.05
0	1588	77.411917444	0.05
0	1589	77.469634267061	0.05
0	1591	77.569634267061	0.05
0	1593	77.669634267061	0.05
0	1595	77.769634267061	0.05
0	1597	77.869634267061	0.05
0	1599	77.969634267061	0.05
0	1600	78.041051803	0.05
0	1601	78.069634267061	0.05
0	1603	78.169634267061	0.05
0	1605	78.269634267061	0.05
0	1607	78.369634267061	0.05
0	1609	78.469634267061	0.05
0	1610	78.515549614	0.05
0	1611	78.569634267061	0.05
0	1613	78.669634267061	0.05
0	1615	78.769634267061	0.05
0	1617	78.869634267061	0.05
0	1619	78.969634267061	0.05
0	1620	79.051650622	0.05
0	1621	79.069634267061	0.05
0	1623	79.169634267061	0.05
0	1625	79.269634267061	0.05
0	1627	79.369634267061	0.05
0	1629	79.469634267061	0.05
0	1631	79.569634267061	0.05
0	1632	79.62520843	0.05
0	1633	79.669634267061	0.05
0	1635	79.769634267061	0.05
0	1637	79.869634267061	0.05
0	1639	79.969634267061	0.05
0	1641	80.069634267061	0.05
0	1643	80.169634267061	0.05
0	1644	80.25657208	0.05
0	1645	80.269634267061	0.05
0	1647	80.369634267061	0.05
0	1649	80.469634267061	0.05
0	1651	80.569634267061	0.05
0	1653	80.669634267061	0.05
0	1655	80.769634267061	0.05
0	1657	80.869634267061	0.05
0	1658	80.965737292	0.05
0	1659	80.969634267061	0.05
0	1661	81.069634267061	0.05
0	1663	81.169634267061	0.05
0	1665	81.269634267061	0.05
0	1667	81.369634267061	0.05
0	1669	81.469634267061	0.05
0	1671	81.569634267061	0.05
0	1672	81.605215507	0.05
0	1673	81.669634267061	0.05
0	1675	81.769634267061	0.05
0	1677	81.869634267061	0.05
0	1679	81.969634267061	0.05
0	1680	82.061211448	0.05
0	1681	82.069634267061	0.05
0	1683	82.169634267061	0.05
0	1685	82.269634267061	0.05
0	1687	82.369634267061	0.05
0	1689	82.469634267061	0.05
0	1690	82.5554956	0.05
0	1691	82.569634267061	0.05
0	1693	82.669634267061	0.05
0	1696	82.769634267061	0.05
0	1698	82.869634267061	0.05
0	1700	82.969634267061	0.05
0	1701	83.037022696	0.05
0	1702	83.069634267061	0.05
0	1704	83.169634267061	0.05
0	1706	83.269634267061	0.0495
0	1706	83.269634267061	0.0495
0	1708	83.369634267061	0.0499
0	1710	83.469634267061	0.05
0	1712	83.569634267061	0.05
0	1713	83.62905394	0.05
0	1714	83.669634267061	0.05
0	1716	83.769634267061	0.05
0	1718	83.869634267061	0.05
0	1720	83.969634267061	0.05
0	1722	84.069634267061	0.05
0	1724	84.169634267061	0.05
0	1726	84.269634267061	0.05
0	1727	84.288807487	0.05
0	1728	84.369634267061	0.05
0	1730	84.469634267061	0.05
0	1732	84.569634267061	0.05
0	1734	84.669634267061	0.05
0	1736	84.769634267061	0.0495
0	1736	84.769634267061	0.0495
0	1737	84.835128151	0.049761975535756
0	1738	84.869634267061	0.0499
0	1740	84.969634267061	0.05
0	1742	85.069634267061	0.05
0	1744	85.169634267061	0.05
0	1745	85.257587719	0.05
0	1746	85.269634267061	0.05
0	1748	85.369634267061	0.05
0	1750	85.469634267061	0.05
0	1752	85.569634267061	0.05
0	1754	85.669634267061	0.05
0	1756	85.769634267061	0.05
0	1757	85.820080243	0.05
0	1758	85.869634267061	0.05
0	1760	85.969634267061	0.05
0	1762	86.069634267061	0.05
0	1764	86.169634267061	0.0495
0	1764	86.169634267061	0.0495
0	1766	86.269634267061	0.0499
0	1768	86.369634267061	0.05
0	1769	86.460507073	0.05
0	1770	86.469634267061	0.05
0	1772	86.569634267061	0.05
0	1774	86.669634267061	0.05
0	1776	86.769634267061	0.05
0	1778	86.869634267061	0.05
0	1780	86.969634267061	0.05
0	1781	86.993924779	0.05
0	1782	87.069634267061	0.05
0	1784	87.169634267061	0.05
0	1785	87.257043496	0.05
0	1786	87.269634267061	0.05
0	1788	87.369634267061	0.05
0	1790	87.469634267061	0.05
0	1792	87.569634267061	0.0495
0	1792	87.569634267061	0.0495
0	1794	87.669634267061	0.0499
0	1796	87.769634267061	0.05
0	1797	87.824139514	0.05
0	1798	87.869634267061	0.05
0	1800	87.969634267061	0.05
0	1802	88.069634267061	0.05
0	1804	88.169634267061	0.05
0	1806	88.269634267061	0.05
0	1807	88.309756108	0.05
0	1808	88.369634267061	0.05
0	1810	88.469634267061	0.05
0	1812	88.569634267061	0.05
0	1813	88.605458905	0.05
0	1814	88.669634267061	0.05
0	1816	88.769634267061	0.05
0	1818	88.869634267061	0.05
0	1820	88.969634267061	0.0495
0	1820	88.969634267061	0.0495
0	1822	89.069634267061	0.0499
0	1823	89.122565737	0.05
0	1824	89.169634267061	0.05
0	1826	89.269634267061	0.05
0	1828	89.369634267061	0.05
0	1830	89.469634267061	0.05
0	1832	89.569634267061	0.05
0	1834	89.669634267061	0.05
0	1835	89.733866905	0.05
0	1836	89.769634267061	0.05
0	1838	89.869634267061	0.05
0	1840	89.969634267061	0.05
0	1842	90.069634267061	0.05
0	1844	90.169634267061	0.05
0	1845	90.214266205	0.05
0	1846	90.269634267061	0.05
0	1848	90.369634267061	0.0495
0	1848	90.369634267061	0.0495
0	1850	90.469634267061	0.0499
0	1852	90.569634267061	0.05
0	1854	90.669634267061	0.05
0	1855	90.689812018	0.05
0	1856	90.769634267061	0.05
0	1858	90.869634267061	0.05
0	1860	90.969634267061	0.05
0	1862	91.069634267061	0.05
0	1863	91.166914144	0.05
0	1864	91.169634267061	0.05
0	1866	91.269634267061	0.05
0	1868	91.369634267061	0.05
0	1869	91.448966554	0.05
0	1870	91.469634267061	0.05
0	1872	91.569634267061	0.05
0	1874	91.669634267061	0.05
0	1876	91.769634267061	0.0495
0	1876	91.769634267061	0.0495
0	1878	91.869634267061	0.0499
0	1879	91.931830189	0.05
0	1880	91.969634267061	0.05
0	1882	92.069634267061	0.05
0	1884	92.169634267061	0.05
0	1886	92.269634267061	0.05
0	1889	92.369634267061	0.05
0	1890	92.457252379	0.05
0	1891	92.469634267061	0.05
0	1893	92.569634267061	0.05
0	1895	92.669634267061	0.05
0	1897	92.769634267061	0.05
0	1899	92.869634267061	0.05
0	1901	92.969634267061	0.05
0	1902	93.009232885	0.05
0	1903	93.069634267061	0.05
0	1905	93.169634267061	0.05
0	1907	93.269634267061	0.05
0	1909	93.369634267061	0.05
0	1911	93.469634267061	0.05
0	1913	93.569634267061	0.05
0	1914	93.604176133	0.05
0	1915	93.669634267061	0.05
0	1917	93.769634267061	0.05
0	1919	93.869634267061	0.05
0	1921	93.969634267061	0.05
0	1923	94.069634267061	0.05
0	1925	94.169634267061	0.05
0	1926	94.237990732	0.05
0	1927	94.269634267061	0.05
0	1929	94.369634267061	0.05
0	1931	94.469634267061	0.05
0	1933	94.569634267061	0.05
0	1935	94.669634267061	0.05
0	1936	94.747638916	0.05
0	1937	94.769634267061	0.05
0	1939	94.869634267061	0.05
0	1941	94.969634267061	0.05
0	1943	95.069634267061	0.05
0	1945	95.169634267061	0.05
0	1947	95.269634267061	0.05
0	1948	95.293051264	0.05
0	1949	95.369634267061	0.05
0	1951	95.469634267061	0.05
0	1953	95.569634267061	0.05
0	1955	95.669634267061	0.05
0	1957	95.769634267061	0.05
0	1958	95.801893654	0.05
0	1959	95.869634267061	0.05
0	1961	95.969634267061	0.05
0	1963	96.069634267061	0.05
0	1965	96.169634267061	0.05
0	1967	96.269634267061	0.05
0	1968	96.285610897	0.05
0	1969	96.369634267061	0.05
0	1971	96.469634267061	0.05
0	1972	96.508296562	0.05
0	1973	96.569634267061	0.05
0	1975	96.669634267061	0.05
0	1976	96.75550879	0.05
0	1977	96.769634267061	0.05
0	1979	96.869634267061	0.05
0	1981	96.969634267061	0.05
0	1983	97.069634267061	0.05
0	1985	97.169634267061	0.05
0	1986	97.266136717	0.05
0	1987	97.269634267061	0.05
0	1989	97.369634267061	0.05
0	1991	97.469634267061	0.05
0	1993	97.569634267061	0.05
0	1995	97.669634267061	0.05
0	1996	97.730624131	0.05
0	1997	97.769634267061	0.05
0	1999	97.869634267061	0.05
0	2001	97.969634267061	0.05
0	2003	98.069634267061	0.05
0	2005	98.169634267061	0.05
0	2006	98.257837075	0.05
0	2007	98.269634267061	0.05
0	2009	98.369634267061	0.05
0	2011	98.469634267061	0.05
0	2013	98.569634267061	0.05
0	2015	98.669634267061	0.05
0	2016	98.671640988978	0.05
0	2017	98.713077739	0.05
0	2018	98.771640988978	0.05
0	2020	98.871640988978	0.05
0	2022	98.971640988978	0.05
0	2024	99.071640988978	0.05
0	2026	99.171640988978	0.05
0	2027	99.212370937	0.05
0	2028	99.271640988978	0.05
0	2030	99.371640988978	0.05
0	2032	99.471640988978	0.05
0	2034	99.571640988978	0.05
0	2036	99.671640988978	0.05
0	2037	99.721374322	0.05
0	2038	99.771640988978	0.05
0	2040	99.871640988978	0.05
0	2042	99.971640988978	0.05
0	2044	100.071640988978	0.05
0	2046	100.171640988978	0.0495
0	2046	100.171640988978	0.0495
0	2047	100.224380644	0.049710958620088
0	2048	100.271640988978	0.0499
0	2050	100.371640988978	0.05
0	2052	100.471640988978	0.05
0	2054	100.571640988978	0.05
0	2056	100.671640988978	0.05
0	2057	100.752197545	0.05
0	2058	100.771640988978	0.05
0	2060	100.871640988978	0.05
0	2062	100.971640988978	0.05
0	2063	100.989743695	0.05
0	2064	101.071640988978	0.05
0	2066	101.171640988978	0.05
0	2068	101.271640988978	0.05
0	2070	101.371640988978	0.05
0	2071	101.45325577	0.05
0	2072	101.471640988978	0.0495
0	2072	101.471640988978	0.0495
0	2074	101.571640988978	0.0499
0	2076	101.671640988978	0.05
0	2078	101.771640988978	0.05
0	2081	101.871640988978	0.05
0	2083	101.971640988978	0.05
0	2085	102.043966717	0.05
0	2086	102.071640988978	0.05
0	2088	102.171640988978	0.05
0	2090	102.271640988978	0.05
0	2092	102.371640988978	0.05
0	2094	102.471640988978	0.05
0	2095	102.571314484	0.05
0	2096	102.571640988978	0.05
0	2098	102.671640988978	0.05
0	2100	102.771640988978	0.05
0	2102	102.871640988978	0.0495
0	2102	102.871640988978	0.0495
0	2104	102.971640988978	0.0499
0	2105	103.010998624	0.05
0	2106	103.071640988978	0.05
0	2108	103.171640988978	0.05
0	2109	103.255780756	0.05
0	2110	103.271640988978	0.05
0	2112	103.371640988978	0.05
0	2114	103.471640988978	0.05
0	2116	103.571640988978	0.05
0	2118	103.671640988978	0.05
0	2120	103.771640988978	0.05
0	2121	103.836206851	0.05
0	2122	103.871640988978	0.05
0	2124	103.971640988978	0.05
0	2126	104.071640988978	0.05
0	2128	104.171640988978	0.05
0	2130	104.271640988978	0.0495
0	2130	104.271640988978	0.0495
0	2132	104.371640988978	0.0499
0	2133	104.414727259	0.05
0	2134	104.471640988978	0.05
0	2136	104.571640988978	0.05
0	2138	104.671640988978	0.05
0	2140	104.771640988978	0.05
0	2142	104.871640988978	0.05
0	2143	104.936652526	0.05
0	2144	104.971640988978	0.05
0	2146	105.071640988978	0.05
0	2148	105.171640988978	0.05
0	2150	105.271640988978	0.05
0	2152	105.371640988978	0.05
0	2154	105.471640988978	0.05
0	2155	105.504783295	0.05
0	2156	105.571640988978	0.05
0	2158	105.671640988978	0.0495
0	2158	105.671640988978	0.0495
0	2160	105.771640988978	0.0499
0	2162	105.871640988978	0.05
0	2164	105.971640988978	0.05
0	2165	106.020188728	0.05
0	2166	106.071640988978	0.05
0	2168	106.171640988978	0.05
0	2170	106.271640988978	0.05
0	2172	106.371640988978	0.05
0	2173	106.401747982	0.05
0	2174	106.471640988978	0.05
0	2176	106.571640988978	0.05
0	2178	106.671640988978	0.05
0	2180	106.771640988978	0.05
0	2182	106.871640988978	0.05
0	2182	106.883364829	0.05
0	2184	106.971640988978	0.05
0	2186	107.071640988978	0.0495
0	2186	107.071640988978	0.0495
0	2188	107.171640988978	0.0499
0	2190	107.271640988978	0.05
0	2191	107.352228079	0.05
0	2192	107.371640988978	0.05
0	2194	107.471640988978	0.05
0	2196	107.571640988978	0.05
0	2198	107.671640988978	0.05
0	2200	107.771640988978	0.05
0	2201	107.792988748	0.05
0	2202	107.871640988978	0.05
0	2204	107.971640988978	0.05
0	2205	108.04698292	0.05
0	2206	108.071640988978	0.05
0	2208	108.171640988978	0.05
0	2210	108.271640988978	0.05
0	2212	108.371640988978	0.05
0	2214	108.471640988978	0.0495
0	2214	108.471640988978	0.0495
0	2215	108.52560544	0.049715857804088
0	2216	108.571640988978	0.0499
0	2218	108.671640988978	0.05
0	2219	108.759044854	0.05
0	2220	108.771640988978	0.05
0	2222	108.871640988978	0.05
0	2224	108.971640988978	0.05
0	2226	109.071640988978	0.05
0	2228	109.171640988978	0.05
0	2229	109.268259913	0.05
0	2230	109.271640988978	0.05
0	2232	109.371640988978	0.05
0	2234	109.471640988978	0.05
0	2236	109.571640988978	0.05
0	2238	109.671640988978	0.05
0	2240	109.771640988978	0.05
0	2240	109.77494143	0.0495
0	2240	109.77494143	0.0495
0	2242	109.871640988978	0.049886798235912
0	2244	109.971640988978	0.05
0	2246	110.071640988978	0.05
0	2248	110.171640988978	0.05
0	2249	110.195837539	0.05
0	2250	110.271640988978	0.05
0	2252	110.371640988978	0.05
0	2254	110.471640988978	0.05
0	2256	110.571640988978	0.05
0	2256	110.574355177	0.05
0	2258	110.671640988978	0.05
0	2260	110.771640988978	0.05
0	2261	110.84803477	0.05
0	2262	110.871640988978	0.05
0	2264	110.971640988978	0.05
0	2266	111.071640988978	0.05
0	2268	111.171640988978	0.0495
0	2268	111.171640988978	0.0495
0	2270	111.271640988978	0.0499
0	2271	111.333355864	0.05
0	2272	111.371640988978	0.05
0	2274	111.471640988978	0.05
0	2276	111.571640988978	0.05
0	2278	111.671640988978	0.05
0	2279	111.740170747	0.05
0	2280	111.771640988978	0.05
0	2282	111.871640988978	0.05
0	2284	111.971640988978	0.05
0	2285	112.020655117	0.05
0	2286	112.071640988978	0.05
0	2288	112.171640988978	0.05
0	2290	112.271640988978	0.05
0	2292	112.371640988978	0.05
0	2294	112.471640988978	0.05
0	2295	112.512237271	0.05
0	2296	112.571640988978	0.05
0	2298	112.671640988978	0.05
0	2300	112.771640988978	0.05
0	2302	112.871640988978	0.05
0	2304	112.971640988978	0.05
0	2305	113.036492236	0.05
0	2306	113.071640988978	0.05
0	2308	113.171640988978	0.05
0	2310	113.271640988978	0.05
0	2312	113.371640988978	0.05
0	2313	113.423259574	0.05
0	2314	113.471640988978	0.05
0	2316	113.571640988978	0.05
0	2318	113.671640988978	0.05
0	2320	113.771640988978	0.05
0	2322	113.871640988978	0.05
0	2323	113.943473599	0.05
0	2324	113.971640988978	0.05
0	2326	114.071640988978	0.05
0	2328	114.171640988978	0.05
0	2330	114.271640988978	0.05
0	2332	114.371640988978	0.05
0	2333	114.43220392	0.05
0	2334	114.471640988978	0.05
0	2336	114.571640988978	0.05
0	2338	114.671640988978	0.05
0	2340	114.771640988978	0.05
0	2342	114.871640988978	0.05
0	2344	114.971640988978	0.05
0	2346	115.071640988978	0.05
0	2347	115.13838085	0.05
0	2348	115.171640988978	0.05
0	2350	115.271640988978	0.05
0	2352	115.371640988978	0.0495
0	2352	115.371640988978	0.0495
0	2354	115.471640988978	0.0499
0	2356	115.571640988978	0.05
0	2358	115.671640988978	0.05
0	2359	115.750439341	0.05
0	2360	115.771640988978	0.05
0	2362	115.871640988978	0.05
0	2364	115.971640988978	0.05
0	2366	116.071640988978	0.05
0	2368	116.171640988978	0.05
0	2370	116.271640988978	0.05
0	2371	116.344604533	0.05
0	2372	116.371640988978	0.05
0	2374	116.471640988978	0.05
0	2376	116.571640988978	0.05
0	2378	116.671640988978	0.05
0	2380	116.771640988978	0.05
0	2382	116.871640988978	0.0495
0	2382	116.871640988978	0.0495
0	2383	116.90150356	0.049619450284088
0	2384	116.971640988978	0.0499
0	2386	117.071640988978	0.05
0	2388	117.171640988978	0.05
0	2390	117.271640988978	0.05
0	2391	117.365315659	0.05
0	2392	117.371640988978	0.05
0	2394	117.471640988978	0.05
0	2396	117.571640988978	0.05
0	2398	117.671640988978	0.05
0	2400	117.771640988978	0.05
0	2401	117.815930548	0.05
0	2402	117.871640988978	0.05
0	2404	117.971640988978	0.05
0	2406	118.071640988978	0.05
0	2408	118.171640988978	0.05
0	2409	118.252495384	0.05
0	2410	118.271640988978	0.05
0	2412	118.371640988978	0.05
0	2414	118.471640988978	0.05
0	2416	118.571640988978	0.05
0	2418	118.671640988978	0.05
0	2420	118.771640988978	0.05
0	2421	118.789037716	0.05
0	2422	118.871640988978	0.05
0	2424	118.971640988978	0.05
0	2426	119.071640988978	0.05
0	2428	119.171640988978	0.05
0	2430	119.271640988978	0.05
0	2431	119.298195115	0.05
0	2432	119.371640988978	0.05
0	2434	119.471640988978	0.05
0	2436	119.571640988978	0.05
0	2438	119.671640988978	0.0495
0	2438	119.671640988978	0.0495
0	2439	119.761625326	0.049859937348088
0	2440	119.771640988978	0.0499
0	2442	119.871640988978	0.05
0	2444	119.971640988978	0.05
0	2446	120.071640988978	0.05
0	2448	120.171640988978	0.05
0	2450	120.271640988978	0.05
0	2452	120.371640988978	0.05
0	2453	120.413842084	0.05
0	2454	120.471640988978	0.05
0	2456	120.571640988978	0.05
0	2458	120.671640988978	0.05
0	2460	120.771640988978	0.05
0	2462	120.871640988978	0.05
0	2462	120.87275077	0.05
0	2464	120.971640988978	0.05
0	2466	121.071640988978	0.0495
0	2466	121.071640988978	0.0495
0	2467	121.153149031	0.049826032168088
0	2468	121.171640988978	0.0499
0	2470	121.271640988978	0.05
0	2472	121.371640988978	0.05
0	2473	121.397889667	0.05
0	2474	121.471640988978	0.05
0	2476	121.571640988978	0.05
0	2478	121.671640988978	0.05
0	2479	121.696463218	0.05
0	2480	121.771640988978	0.05
0	2482	121.871640988978	0.05
0	2484	121.971640988978	0.05
0	2486	122.071640988978	0.05
0	2488	122.171640988978	0.05
0	2489	122.202429064	0.05
0	2490	122.271640988978	0.05
0	2492	122.371640988978	0.0495
0	2492	122.371640988978	0.0495
0	2494	122.471640988978	0.0499
0	2496	122.571640988978	0.05
0	2498	122.671640988978	0.05
0	2499	122.68938235	0.05
0	2500	122.771640988978	0.05
0	2502	122.871640988978	0.05
0	2504	122.971640988978	0.05
0	2506	123.071640988978	0.05
0	2507	123.131463505	0.05
0	2508	123.171640988978	0.05
0	2510	123.271640988978	0.05
0	2512	123.371640988978	0.05
0	2514	123.471640988978	0.05
0	2516	123.571640988978	0.05
0	2518	123.671640988978	0.05
0	2518	123.684995215	0.05
0	2520	123.771640988978	0.0495
0	2520	123.771640988978	0.0495
0	2522	123.871640988978	0.0499
0	2524	123.971640988978	0.05
0	2526	124.071640988978	0.05
0	2528	124.171640988978	0.05
0	2530	124.271640988978	0.05
0	2531	124.296895441	0.05
0	2532	124.371640988978	0.05
0	2534	124.471640988978	0.05
0	2536	124.571640988978	0.05
0	2538	124.671640988978	0.05
0	2540	124.771640988978	0.05
0	2542	124.871640988978	0.05
0	2544	124.971640988978	0.05
0	2545	125.000247055	0.05
0	2546	125.071640988978	0.05
0	2548	125.171640988978	0.05
0	2550	125.271640988978	0.0495
0	2550	125.271640988978	0.0495
0	2551	125.301068281	0.049617709168088
0	2552	125.371640988978	0.0499
0	2554	125.471640988978	0.05
0	2556	125.571640988978	0.05
0	2558	125.671640988978	0.05
0	2560	125.771640988978	0.05
0	2561	125.793398083	0.05
0	2562	125.871640988978	0.05
0	2564	125.971640988978	0.05
0	2566	126.071640988978	0.05
0	2568	126.171640988978	0.05
0	2570	126.271640988978	0.05
0	2571	126.319868254	0.05
0	2572	126.371640988978	0.05
0	2574	126.471640988978	0.05
0	2576	126.571640988978	0.05
0	2578	126.671640988978	0.0495
0	2578	126.671640988978	0.0495
0	2580	126.771640988978	0.0499
0	2582	126.871640988978	0.05
0	2583	126.888274948	0.05
0	2584	126.971640988978	0.05
0	2586	127.071640988978	0.05
0	2589	127.171640988978	0.05
0	2591	127.271640988978	0.05
0	2591	127.349980492	0.05
0	2593	127.371640988978	0.05
0	2595	127.471640988978	0.05
0	2597	127.571640988978	0.05
0	2599	127.671640988978	0.05
0	2601	127.771640988978	0.05
0	2601	127.833322153	0.05
0	2603	127.871640988978	0.05
0	2605	127.971640988978	0.05
0	2607	128.071640988978	0.05
0	2609	128.171640988978	0.05
0	2611	128.271640988978	0.05
0	2613	128.371640988978	0.05
0	2613	128.464004173	0.05
0	2615	128.471640988978	0.05
0	2617	128.571640988978	0.05
0	2619	128.671640988978	0.05
0	2621	128.771640988978	0.05
0	2623	128.871640988978	0.05
0	2625	128.971640988978	0.05
0	2627	129.071640988978	0.05
0	2627	129.077481214	0.05
0	2629	129.171640988978	0.05
0	2631	129.271640988978	0.05
0	2633	129.371640988978	0.05
0	2635	129.471640988978	0.05
0	2637	129.571640988978	0.05
0	2639	129.671640988978	0.05
0	2639	129.679555138	0.05
0	2641	129.771640988978	0.05
0	2643	129.871640988978	0.05
0	2645	129.971640988978	0.05
0	2647	130.071640988978	0.05
0	2647	130.124188546	0.05
0	2649	130.171640988978	0.05
0	2651	130.271640988978	0.05
0	2653	130.371640988978	0.05
0	2655	130.471640988978	0.05
0	2657	130.571640988978	0.05
0	2657	130.585376131	0.05
0	2659	130.671640988978	0.05
0	2661	130.771640988978	0.05
0	2663	130.871640988978	0.05
0	2665	130.971640988978	0.05
0	2666	131.070404461	0.05
0	2667	131.071640988978	0.05
0	2669	131.171640988978	0.05
0	2671	131.271640988978	0.05
0	2673	131.371640988978	0.05
0	2675	131.471640988978	0.05
0	2677	131.571640988978	0.05
0	2677	131.606961559	0.05
0	2679	131.671640988978	0.05
0	2681	131.771640988978	0.05
0	2683	131.871640988978	0.05
0	2685	131.971640988978	0.05
0	2685	132.0521104	0.05
0	2687	132.071640988978	0.05
0	2689	132.171640988978	0.05
0	2691	132.271640988978	0.05
0	2691	132.306448075	0.05
0	2693	132.371640988978	0.05
0	2694	132.408408266214	0.05
0	2696	132.471640988978	0.05
0	2698	132.571640988978	0.05
0	2700	132.671640988978	0.05
0	2702	132.771640988978	0.05
0	2702	132.840141652	0.05
0	2704	132.871640988978	0.05
0	2706	132.971640988978	0.05
0	2708	133.071640988978	0.05
0	2708	133.136537224	0.05
0	2710	133.171640988978	0.05
0	2712	133.271640988978	0.05
0	2714	133.371640988978	0.05
0	2716	133.471640988978	0.05
0	2718	133.571640988978	0.05
0	2718	133.595290099	0.0495
0	2718	133.595290099	0.0495
0	2720	133.671640988978	0.0495
0	2722	133.771640988978	0.0495
0	2724	133.871640988978	0.0495
0	2726	133.971640988978	0.0495
0	2726	134.02852126	0.0495
0	2728	134.071640988978	0.0495
0	2730	134.171640988978	0.0495
0	2732	134.271640988978	0.0495
0	2734	134.371640988978	0.0495
0	2736	134.471640988978	0.0495
0	2736	134.538609922	0.0495
0	2738	134.571640988978	0.0495
0	2740	134.671640988978	0.0495
0	2742	134.771640988978	0.0495
0	2744	134.871640988978	0.0495
0	2746	134.971640988978	0.0495
0	2746	135.008244223	0.049005
0	2746	135.008244223	0.049005
0	2748	135.071640988978	0.049005
0	2750	135.171640988978	0.049005
0	2752	135.271640988978	0.049005
0	2752	135.296789731	0.049005
0	2754	135.371640988978	0.049005
0	2756	135.471640988978	0.049005
0	2758	135.571640988978	0.049005
0	2760	135.671640988978	0.049005
0	2760	135.682609318	0.049005
0	2762	135.771640988978	0.049005
0	2764	135.871640988978	0.049005
0	2764	135.927037474	0.049005
0	2766	135.971640988978	0.049005
0	2768	136.071640988978	0.049005
0	2770	136.171640988978	0.049005
0	2773	136.271640988978	0.049005
0	2776	136.371640988978	0.049005
0	2776	136.426775275	0.049005
0	2779	136.471640988978	0.049005
0	2781	136.571640988978	0.049005
0	2784	136.671640988978	0.049005
0	2784	136.709837338	0.049005
0	2787	136.771640988978	0.049005
0	2790	136.871640988978	0.049005
0	2793	136.971640988978	0.049005
0	2795	137.071640988978	0.049005
0	2796	137.156548153	0.049005
0	2798	137.171640988978	0.049005
0	2801	137.271640988978	0.049005
0	2803	137.371640988978	0.049005
0	2803	137.442488434	0.049005
0	2805	137.471640988978	0.049005
0	2807	137.571640988978	0.049005
0	2809	137.671640988978	0.049005
0	2811	137.771640988978	0.049005
0	2813	137.871640988978	0.049005
0	2813	137.900298283	0.049005
0	2814	137.909588969303	0.049005
0	2816	137.971640988978	0.0492532080787
0	2817	138.033338969303	0.0495
0	2819	138.071640988978	0.0496532080787
0	2820	138.158338969303	0.05
0	2822	138.171640988978	0.05
0	2824	138.271640988978	0.05
0	2826	138.371640988978	0.05
0	2826	138.404234266	0.05
0	2828	138.471640988978	0.05
0	2830	138.571640988978	0.0495
0	2830	138.571640988978	0.0495
0	2832	138.671640988978	0.0499
0	2834	138.771640988978	0.05
0	2834	138.823229971	0.05
0	2836	138.871640988978	0.05
0	2838	138.971640988978	0.05
0	2840	139.071640988978	0.05
0	2842	139.171640988978	0.05
0	2842	139.2644542	0.05
0	2844	139.271640988978	0.05
0	2846	139.371640988978	0.05
0	2848	139.471640988978	0.05
0	2850	139.571640988978	0.05
0	2852	139.671640988978	0.05
0	2854	139.771640988978	0.05
0	2854	139.835776693	0.05
0	2856	139.871640988978	0.05
0	2858	139.971640988978	0.0495
0	2858	139.971640988978	0.0495
0	2860	140.071640988978	0.0499
0	2862	140.171640988978	0.05
0	2864	140.271640988978	0.05
0	2866	140.371640988978	0.05
0	2866	140.399260633	0.05
0	2868	140.471640988978	0.05
0	2870	140.571640988978	0.05
0	2872	140.671640988978	0.05
0	2874	140.771640988978	0.05
0	2876	140.871640988978	0.05
0	2878	140.971640988978	0.05
0	2879	140.979641036666	0.05
0	2879	141.044074975	0.05
0	2881	141.071640988978	0.05
0	2883	141.171640988978	0.05
0	2885	141.271640988978	0.05
0	2887	141.371640988978	0.05
0	2889	141.471640988978	0.05
0	2891	141.571640988978	0.05
0	2891	141.620200861	0.05
0	2893	141.671640988978	0.05
0	2895	141.771640988978	0.05
0	2897	141.871640988978	0.05
0	2899	141.971640988978	0.05
0	2901	142.071640988978	0.05
0	2903	142.171640988978	0.05
0	2903	142.251985387	0.05
0	2905	142.271640988978	0.05
0	2907	142.371640988978	0.05
0	2909	142.471640988978	0.05
0	2909	142.527537634	0.05
0	2911	142.571640988978	0.05
0	2913	142.671640988978	0.05
0	2915	142.771640988978	0.05
0	2917	142.871640988978	0.05
0	2919	142.971640988978	0.05
0	2919	143.029811098	0.05
0	2921	143.071640988978	0.05
0	2923	143.171640988978	0.05
0	2925	143.271640988978	0.05
0	2925	143.303676097	0.05
0	2927	143.371640988978	0.05
0	2929	143.471640988978	0.05
0	2931	143.571640988978	0.05
0	2933	143.671640988978	0.05
0	2933	143.749948111	0.05
0	2935	143.771640988978	0.05
0	2937	143.871640988978	0.05
0	2939	143.971640988978	0.05
0	2939	144.03897823	0.05
0	2941	144.071640988978	0.05
0	2943	144.171640988978	0.05
0	2945	144.271640988978	0.05
0	2945	144.323490655	0.05
0	2947	144.371640988978	0.05
0	2949	144.471640988978	0.05
0	2951	144.571640988978	0.05
0	2953	144.671640988978	0.05
0	2953	144.753128467	0.05
0	2955	144.771640988978	0.05
0	2957	144.871640988978	0.05
0	2959	144.971640988978	0.05
0	2961	145.071640988978	0.05
0	2963	145.171640988978	0.05
0	2963	145.187680156	0.05
0	2965	145.271640988978	0.05
0	2967	145.371640988978	0.05
0	2969	145.471640988978	0.05
0	2969	145.48678387	0.05
0	2971	145.571640988978	0.05
0	2973	145.671640988978	0.05
0	2975	145.771640988978	0.05
0	2977	145.871640988978	0.05
0	2979	145.971640988978	0.05
0	2981	146.071640988978	0.05
0	2981	146.084833057	0.05
0	2983	146.171640988978	0.05
0	2985	146.271640988978	0.05
0	2987	146.371640988978	0.05
0	2989	146.471640988978	0.05
0	2991	146.571640988978	0.05
0	2991	146.591626189	0.05
0	2993	146.671640988978	0.05
0	2995	146.771640988978	0.05
0	2997	146.871640988978	0.05
0	2999	146.971640988978	0.05
0	2999	147.036667333	0.05
0	3001	147.071640988978	0.05
0	3003	147.171640988978	0.05
0	3005	147.271640988978	0.05
0	3007	147.371640988978	0.05
0	3009	147.471640988978	0.05
0	3009	147.497909194	0.05
0	3011	147.571640988978	0.05
0	3013	147.671640988978	0.05
0	3015	147.771640988978	0.05
0	3017	147.871640988978	0.05
0	3019	147.971640988978	0.05
0	3019	147.995088478	0.05
0	3021	148.071640988978	0.05
0	3023	148.171640988978	0.05
0	3025	148.271640988978	0.05
0	3027	148.371640988978	0.05
0	3029	148.471640988978	0.05
0	3031	148.571640988978	0.05
0	3031	148.603010539	0.05
0	3033	148.671640988978	0.05
0	3035	148.771640988978	0.05
0	3037	148.871640988978	0.05
0	3039	148.971640988978	0.05
0	3039	149.065089862	0.05
0	3041	149.071640988978	0.05
0	3043	149.171640988978	0.05
0	3045	149.271640988978	0.05
0	3047	149.371640988978	0.05
0	3049	149.471640988978	0.05
0	3051	149.571640988978	0.05
0	3051	149.593196827	0.05
0	3053	149.671640988978	0.05
0	3055	149.771640988978	0.05
0	3057	149.871640988978	0.05
0	3059	149.971640988978	0.05
0	3059	150.034708708	0.05
0	3061	150.071640988978	0.05
0	3063	150.171640988978	0.05
0	3065	150.271640988978	0.05
0	3065	150.362814292	0.05
0	3067	150.371640988978	0.05
0	3069	150.471640988978	0.05
0	3071	150.571640988978	0.05
0	3073	150.671640988978	0.05
0	3075	150.771640988978	0.05
0	3075	150.82020961	0.05
0	3077	150.871640988978	0.05
0	3079	150.971640988978	0.05
0	3081	151.071640988978	0.05
0	3083	151.171640988978	0.05
0	3085	151.271640988978	0.05
0	3085	151.33884541	0.05
0	3087	151.371640988978	0.05
0	3089	151.471640988978	0.05
0	3091	151.571640988978	0.05
0	3091	151.63183738	0.05
0	3093	151.671640988978	0.05
0	3095	151.771640988978	0.05
0	3097	151.871640988978	0.05
0	3099	151.971640988978	0.05
0	3101	152.071640988978	0.05
0	3101	152.109850717	0.05
0	3103	152.171640988978	0.05
0	3105	152.271640988978	0.05
0	3107	152.371640988978	0.05
0	3109	152.471640988978	0.05
0	3111	152.571640988978	0.05
0	3111	152.649008548	0.05
0	3113	152.671640988978	0.05
0	3115	152.771640988978	0.05
0	3117	152.871640988978	0.05
0	3119	152.971640988978	0.05
0	3121	153.071640988978	0.05
0	3123	153.171640988978	0.05
0	3123	153.189451303	0.05
0	3125	153.271640988978	0.05
0	3127	153.371640988978	0.05
0	3129	153.471640988978	0.05
0	3131	153.571640988978	0.05
0	3133	153.671640988978	0.05
0	3133	153.686953204	0.05
0	3135	153.771640988978	0.05
0	3137	153.871640988978	0.05
0	3139	153.971640988978	0.05
0	3141	154.071640988978	0.05
0	3143	154.171640988978	0.05
0	3145	154.271640988978	0.05
0	3145	154.307437891	0.05
0	3147	154.371640988978	0.05
0	3149	154.471640988978	0.05
0	3151	154.571640988978	0.05
0	3153	154.671640988978	0.05
0	3155	154.771640988978	0.05
0	3155	154.843211695	0.05
0	3157	154.871640988978	0.05
0	3159	154.971640988978	0.05
0	3161	155.071640988978	0.05
0	3163	155.171640988978	0.05
0	3165	155.271640988978	0.05
0	3165	155.339972782	0.05
0	3167	155.371640988978	0.05
0	3169	155.471640988978	0.05
0	3171	155.571640988978	0.05
0	3173	155.671640988978	0.05
0	3175	155.771640988978	0.05
0	3175	155.810767525	0.05
0	3177	155.871640988978	0.05
0	3179	155.971640988978	0.05
0	3181	156.071640988978	0.05
0	3183	156.171640988978	0.05
0	3185	156.271640988978	0.05
0	3187	156.371640988978	0.05
0	3187	156.388739071	0.05
0	3189	156.471640988978	0.05
0	3191	156.571640988978	0.05
0	3193	156.671640988978	0.05
0	3195	156.771640988978	0.05
0	3197	156.871640988978	0.05
0	3199	156.971148757	0.05
0	3200	156.971640988978	0.05
0	3202	157.071640988978	0.05
0	3204	157.171640988978	0.05
0	3206	157.271640988978	0.05
0	3208	157.371640988978	0.05
0	3210	157.471640988978	0.05
0	3210	157.512252928	0.05
0	3212	157.571640988978	0.05
0	3214	157.671640988978	0.05
0	3216	157.771640988978	0.05
0	3218	157.871640988978	0.05
0	3220	157.971640988978	0.05
0	3220	158.063970286	0.05
0	3222	158.071640988978	0.05
0	3224	158.171640988978	0.0495
0	3224	158.171640988978	0.0495
0	3226	158.271640988978	0.0495
0	3228	158.371640988978	0.0495
0	3230	158.471640988978	0.0495
0	3231	158.566887478	0.0495
0	3232	158.571640988978	0.0495
0	3234	158.671640988978	0.0495
0	3236	158.771640988978	0.0495
0	3238	158.871640988978	0.0495
0	3240	158.971640988978	0.0495
0	3240	159.008951677	0.0495
0	3242	159.071640988978	0.0495
0	3244	159.171640988978	0.0495
0	3246	159.271640988978	0.0495
0	3248	159.371640988978	0.0495
0	3248	159.451609294	0.0495
0	3250	159.471640988978	0.0495
0	3252	159.571640988978	0.049005
0	3252	159.571640988978	0.049005
0	3254	159.671640988978	0.049005
0	3256	159.771640988978	0.049005
0	3258	159.871640988978	0.049005
0	3260	159.971640988978	0.049005
0	3260	159.976582528	0.049005
0	3262	160.071640988978	0.049005
0	3264	160.171640988978	0.049005
0	3266	160.271640988978	0.049005
0	3268	160.371640988978	0.049005
0	3270	160.471640988978	0.049005
0	3270	160.517748793	0.049005
0	3272	160.571640988978	0.049005
0	3274	160.671640988978	0.049005
0	3276	160.771640988978	0.049005
0	3278	160.871640988978	0.049005
0	3280	160.971640988978	0.049005
0	3280	160.987169134	0.04851495
0	3280	160.987169134	0.04851495
0	3282	161.071640988978	0.04851495
0	3284	161.171640988978	0.04851495
0	3286	161.271640988978	0.04851495
0	3288	161.371640988978	0.04851495
0	3288	161.427900286	0.04851495
0	3290	161.471640988978	0.04851495
0	3292	161.571640988978	0.04851495
0	3294	161.671640988978	0.04851495
0	3296	161.771640988978	0.04851495
0	3298	161.871640988978	0.04851495
0	3298	161.891713216	0.04851495
0	3300	161.971640988978	0.04851495
0	3302	162.071640988978	0.04851495
0	3304	162.171640988978	0.04851495
0	3306	162.271640988978	0.04851495
0	3308	162.371640988978	0.04851495
0	3308	162.379169731	0.0480298005
0	3308	162.379169731	0.0480298005
0	3310	162.471640988978	0.0480298005
0	3312	162.571640988978	0.0480298005
0	3314	162.671640988978	0.0480298005
0	3316	162.771640988978	0.0480298005
0	3316	162.7723747	0.0480298005
0	3318	162.871640988978	0.0480298005
0	3320	162.971640988978	0.0480298005
0	3322	163.071640988978	0.0480298005
0	3324	163.171640988978	0.0480298005
0	3324	163.233570541	0.0480298005
0	3326	163.271640988978	0.0480298005
0	3328	163.371640988978	0.0480298005
0	3330	163.471640988978	0.0480298005
0	3332	163.571640988978	0.0480298005
0	3334	163.671640988978	0.0480298005
0	3334	163.69957672	0.0480298005
0	3336	163.771640988978	0.047549502495
0	3336	163.771640988978	0.047549502495
0	3338	163.871640988978	0.047549502495
0	3340	163.971640988978	0.047549502495
0	3342	164.071640988978	0.047549502495
0	3342	164.131270129	0.047549502495
0	3344	164.171640988978	0.047549502495
0	3346	164.271640988978	0.047549502495
0	3348	164.371640988978	0.047549502495
0	3348	164.429974285	0.047549502495
0	3350	164.471640988978	0.047549502495
0	3352	164.571640988978	0.047549502495
0	3352	164.661863428	0.047549502495
0	3354	164.671640988978	0.047549502495
0	3356	164.771640988978	0.047549502495
0	3358	164.871640988978	0.047549502495
0	3358	164.951047282	0.047549502495
0	3360	164.971640988978	0.047549502495
0	3362	165.071640988978	0.04707400747005
0	3362	165.071640988978	0.04707400747005
0	3364	165.171640988978	0.04707400747005
0	3364	165.234951769	0.04707400747005
0	3366	165.271640988978	0.04707400747005
0	3368	165.371640988978	0.04707400747005
0	3370	165.471640988978	0.04707400747005
0	3372	165.571640988978	0.04707400747005
0	3373	165.64316002502	0.04707400747005
0	3374	165.731784487	0.04707400747005
0	3375	165.74316002502	0.04707400747005
0	3377	165.84316002502	0.04707400747005
0	3379	165.94316002502	0.04707400747005
0	3381	166.04316002502	0.04707400747005
0	3383	166.14316002502	0.04707400747005
0	3384	166.177444705	0.04707400747005
0	3385	166.24316002502	0.04707400747005
0	3387	166.34316002502	0.04707400747005
0	3389	166.44316002502	0.04707400747005
0	3390	166.467518359	0.04707400747005
0	3391	166.54316002502	0.04707400747005
0	3393	166.64316002502	0.04707400747005
0	3395	166.74316002502	0.04707400747005
0	3397	166.84316002502	0.04707400747005
0	3399	166.94316002502	0.04707400747005
0	3401	167.04316002502	0.04707400747005
0	3401	167.047177195	0.04707400747005
0	3403	167.14316002502	0.04707400747005
0	3405	167.24316002502	0.04707400747005
0	3406	167.332356589	0.04707400747005
0	3407	167.34316002502	0.04707400747005
0	3409	167.44316002502	0.04707400747005
0	3411	167.54316002502	0.04707400747005
0	3413	167.64316002502	0.04707400747005
0	3414	167.738642485	0.04707400747005
0	3415	167.74316002502	0.04707400747005
0	3417	167.84316002502	0.04707400747005
0	3419	167.94316002502	0.04707400747005
0	3421	168.04316002502	0.04707400747005
0	3423	168.14316002502	0.04707400747005
0	3424	168.194746729	0.04707400747005
0	3425	168.24316002502	0.04707400747005
0	3427	168.34316002502	0.04707400747005
0	3429	168.44316002502	0.04707400747005
0	3431	168.54316002502	0.04707400747005
0	3433	168.64316002502	0.04707400747005
0	3435	168.74316002502	0.04707400747005
0	3436	168.783924685	0.04707400747005
0	3437	168.84316002502	0.04707400747005
0	3439	168.94316002502	0.04707400747005
0	3441	169.04316002502	0.04707400747005
0	3443	169.14316002502	0.04707400747005
0	3445	169.24316002502	0.04707400747005
0	3447	169.34316002502	0.04707400747005
0	3448	169.410505924	0.04707400747005
0	3449	169.44316002502	0.04707400747005
0	3451	169.54316002502	0.04707400747005
0	3453	169.64316002502	0.04707400747005
0	3455	169.74316002502	0.04707400747005
0	3457	169.84316002502	0.04707400747005
0	3459	169.94316002502	0.04707400747005
0	3461	170.04316002502	0.04707400747005
0	3461	170.044555642	0.04707400747005
0	3463	170.14316002502	0.04707400747005
0	3465	170.24316002502	0.04707400747005
0	3467	170.34316002502	0.04707400747005
0	3469	170.44316002502	0.04707400747005
0	3471	170.54316002502	0.04707400747005
0	3473	170.64316002502	0.04707400747005
0	3475	170.74316002502	0.04707400747005
0	3477	170.84316002502	0.04707400747005
0	3479	170.878963072841	0.04707400747005
0	3479	170.924195629	0.047254937694686
0	3480	170.94316002502	0.047330795278766
0	3482	170.985461205328	0.0475
0	3483	171.04316002502	0.047730795278768
0	3485	171.110461205328	0.048
0	3486	171.14316002502	0.048130795278768
0	3488	171.235461205328	0.0485
0	3489	171.24316002502	0.048530795278768
0	3491	171.34316002502	0.048930795278768
0	3492	171.360461205328	0.049
0	3494	171.44316002502	0.049330795278768
0	3496	171.485461205328	0.0495
0	3497	171.54316002502	0.049730795278768
0	3499	171.610461205328	0.05
0	3500	171.64316002502	0.05
0	3501	171.682846552	0.05
0	3502	171.74316002502	0.05
0	3504	171.84316002502	0.05
0	3506	171.94316002502	0.0495
0	3506	171.94316002502	0.0495
0	3508	172.04316002502	0.0499
0	3509	172.115975203	0.05
0	3510	172.14316002502	0.05
0	3512	172.24316002502	0.05
0	3514	172.34316002502	0.05
0	3516	172.44316002502	0.05
0	3518	172.54316002502	0.05
0	3519	172.576701988	0.05
0	3520	172.64316002502	0.05
0	3522	172.74316002502	0.05
0	3523	172.834238095	0.05
0	3524	172.84316002502	0.05
0	3526	172.94316002502	0.05
0	3528	173.04316002502	0.05
0	3530	173.14316002502	0.05
0	3531	173.215425748	0.05
0	3532	173.24316002502	0.0495
0	3532	173.24316002502	0.0495
0	3534	173.34316002502	0.0499
0	3536	173.44316002502	0.05
0	3538	173.54316002502	0.05
0	3540	173.64316002502	0.05
0	3540	173.655740287	0.05
0	3542	173.74316002502	0.05
0	3544	173.84316002502	0.05
0	3547	173.94316002502	0.05
0	3550	174.04316002502	0.05
0	3553	174.14316002502	0.05
0	3553	174.14881315	0.05
0	3555	174.24316002502	0.05
0	3558	174.34316002502	0.05
0	3561	174.44316002502	0.05
0	3564	174.54316002502	0.05
0	3565	174.61606582	0.05
0	3566	174.64316002502	0.05
0	3568	174.74316002502	0.05
0	3570	174.84316002502	0.05
0	3572	174.94316002502	0.05
0	3574	175.04316002502	0.05
0	3575	175.075883362	0.05
0	3576	175.14316002502	0.05
0	3578	175.24316002502	0.05
0	3580	175.34316002502	0.05
0	3582	175.44316002502	0.05
0	3583	175.483024432	0.05
0	3584	175.54316002502	0.05
0	3586	175.64316002502	0.05
0	3588	175.74316002502	0.05
0	3590	175.84316002502	0.0495
0	3590	175.84316002502	0.0495
0	3592	175.94316002502	0.0499
0	3594	176.04316002502	0.05
0	3594	176.055725434	0.05
0	3596	176.14316002502	0.05
0	3598	176.24316002502	0.05
0	3600	176.34316002502	0.05
0	3600	176.351454799	0.05
0	3602	176.44316002502	0.05
0	3604	176.54316002502	0.05
0	3606	176.64316002502	0.05
0	3608	176.74316002502	0.05
0	3608	176.754366154	0.05
0	3610	176.84316002502	0.05
0	3612	176.94316002502	0.05
0	3614	177.04316002502	0.05
0	3616	177.14316002502	0.05
0	3618	177.24316002502	0.0495
0	3618	177.24316002502	0.0495
0	3618	177.248350636	0.04952076244392
0	3620	177.34316002502	0.0499
0	3622	177.44316002502	0.05
0	3624	177.54316002502	0.05
0	3626	177.64316002502	0.05
0	3627	177.723020455	0.05
0	3628	177.74316002502	0.05
0	3630	177.84316002502	0.05
0	3632	177.94316002502	0.05
0	3633	178.020370207	0.05
0	3634	178.04316002502	0.05
0	3636	178.14316002502	0.05
0	3638	178.24316002502	0.05
0	3639	178.308497806	0.05
0	3640	178.34316002502	0.05
0	3642	178.44316002502	0.05
0	3644	178.54316002502	0.0495
0	3644	178.54316002502	0.0495
0	3646	178.64316002502	0.0499
0	3647	178.734637705	0.05
0	3648	178.74316002502	0.05
0	3650	178.84316002502	0.05
0	3653	178.94316002502	0.05
0	3655	179.04316002502	0.05
0	3657	179.14316002502	0.05
0	3658	179.208005602	0.05
0	3659	179.24316002502	0.05
0	3661	179.34316002502	0.05
0	3663	179.44316002502	0.05
0	3665	179.54316002502	0.05
0	3667	179.64316002502	0.05
0	3668	179.731038292	0.05
0	3669	179.74316002502	0.05
0	3671	179.84316002502	0.05
0	3673	179.94316002502	0.05
0	3674	179.967775723	0.05
0	3675	180.04316002502	0.05
0	3677	180.14316002502	0.05
0	3679	180.24316002502	0.05
0	3681	180.34316002502	0.05
0	3683	180.44316002502	0.05
0	3684	180.467462656	0.05
0	3685	180.54316002502	0.05
0	3687	180.64316002502	0.05
0	3688	180.703531258	0.05
0	3689	180.74316002502	0.05
0	3691	180.84316002502	0.05
0	3693	180.94316002502	0.05
0	3695	181.04316002502	0.05
0	3696	181.099074868	0.05
0	3697	181.14316002502	0.05
0	3699	181.24316002502	0.05
0	3701	181.34316002502	0.05
0	3703	181.44316002502	0.05
0	3705	181.54316002502	0.05
0	3706	181.621225081	0.05
0	3707	181.64316002502	0.05
0	3709	181.74316002502	0.05
0	3711	181.84316002502	0.05
0	3713	181.94316002502	0.05
0	3715	182.04316002502	0.05
0	3717	182.14316002502	0.05
0	3719	182.24316002502	0.05
0	3719	182.248186615	0.05
0	3721	182.34316002502	0.05
0	3723	182.44316002502	0.05
0	3725	182.54316002502	0.05
0	3727	182.64316002502	0.05
0	3729	182.74316002502	0.05
0	3731	182.84316002502	0.05
0	3732	182.887414474	0.05
0	3733	182.94316002502	0.05
0	3735	183.04316002502	0.05
0	3737	183.14316002502	0.05
0	3739	183.24316002502	0.05
0	3740	183.311413522	0.05
0	3741	183.34316002502	0.05
0	3743	183.44316002502	0.05
0	3745	183.54316002502	0.05
0	3747	183.64316002502	0.05
0	3748	183.730279828	0.05
0	3749	183.74316002502	0.05
0	3751	183.84316002502	0.05
0	3753	183.94316002502	0.05
0	3755	184.028354312458	0.05
0	3756	184.04316002502	0.0495
0	3756	184.04316002502	0.0495
0	3758	184.14316002502	0.0495
0	3759	184.186656247	0.0495
0	3760	184.24316002502	0.0495
0	3762	184.34316002502	0.0495
0	3763	184.440630982	0.0495
0	3764	184.44316002502	0.0495
0	3766	184.54316002502	0.0495
0	3768	184.64316002502	0.0495
0	3770	184.74316002502	0.0495
0	3772	184.84316002502	0.0495
0	3774	184.94316002502	0.0495
0	3775	184.957195369	0.0495
0	3777	185.04316002502	0.0495
0	3780	185.14316002502	0.0495
0	3782	185.24316002502	0.0495
0	3784	185.33546839	0.0495
0	3785	185.34316002502	0.0495
0	3788	185.44316002502	0.0495
0	3790	185.54316002502	0.0495
0	3792	185.64316002502	0.0495
0	3794	185.74316002502	0.0495
0	3796	185.84316002502	0.0495
0	3797	185.874725002	0.0495
0	3798	185.94316002502	0.0495
0	3800	186.04316002502	0.0495
0	3802	186.14316002502	0.0495
0	3804	186.24316002502	0.0495
0	3806	186.34316002502	0.0495
0	3807	186.403736944	0.0495
0	3808	186.44316002502	0.0495
0	3810	186.54316002502	0.0495
0	3812	186.64316002502	0.049005
0	3812	186.64316002502	0.049005
0	3814	186.74316002502	0.049005
0	3816	186.84316002502	0.049005
0	3817	186.879477331	0.049005
0	3818	186.94316002502	0.049005
0	3820	187.04316002502	0.049005
0	3822	187.14316002502	0.049005
0	3824	187.24316002502	0.049005
0	3826	187.34316002502	0.049005
0	3827	187.404714865	0.049005
0	3828	187.44316002502	0.049005
0	3830	187.54316002502	0.049005
0	3832	187.64316002502	0.049005
0	3834	187.74316002502	0.049005
0	3836	187.84316002502	0.049005
0	3837	187.860332074	0.049005
0	3838	187.94316002502	0.049005
0	3840	188.04316002502	0.04851495
0	3840	188.04316002502	0.04851495
0	3842	188.14316002502	0.04851495
0	3844	188.24316002502	0.04851495
0	3845	188.298844972	0.04851495
0	3846	188.34316002502	0.04851495
0	3848	188.44316002502	0.04851495
0	3850	188.54316002502	0.04851495
0	3852	188.64316002502	0.04851495
0	3854	188.74316002502	0.04851495
0	3855	188.819716255	0.04851495
0	3856	188.84316002502	0.04851495
0	3858	188.94316002502	0.04851495
0	3860	189.04316002502	0.04851495
0	3861	189.11916475	0.04851495
0	3862	189.14316002502	0.04851495
0	3864	189.24316002502	0.04851495
0	3866	189.34316002502	0.04851495
0	3868	189.44316002502	0.0480298005
0	3868	189.44316002502	0.0480298005
0	3870	189.54316002502	0.0480298005
0	3871	189.642302062	0.0480298005
0	3872	189.64316002502	0.0480298005
0	3874	189.74316002502	0.0480298005
0	3876	189.84316002502	0.0480298005
0	3878	189.94316002502	0.0480298005
0	3880	190.04316002502	0.0480298005
0	3882	190.14316002502	0.0480298005
0	3883	190.185703663	0.0480298005
0	3884	190.24316002502	0.0480298005
0	3886	190.34316002502	0.0480298005
0	3888	190.44316002502	0.0480298005
0	3890	190.54316002502	0.0480298005
0	3891	190.634407861	0.0480298005
0	3892	190.64316002502	0.0480298005
0	3894	190.74316002502	0.0480298005
0	3896	190.84316002502	0.047549502495
0	3896	190.84316002502	0.047549502495
0	3897	190.924285894	0.047549502495
0	3898	190.94316002502	0.047549502495
0	3900	191.04316002502	0.047549502495
0	3902	191.14316002502	0.047549502495
0	3904	191.24316002502	0.047549502495
0	3906	191.34316002502	0.047549502495
0	3907	191.412432589	0.047549502495
0	3908	191.44316002502	0.047549502495
0	3910	191.54316002502	0.047549502495
0	3912	191.64316002502	0.047549502495
0	3914	191.74316002502	0.047549502495
0	3916	191.807739145	0.047549502495
0	3917	191.84316002502	0.047549502495
0	3919	191.94316002502	0.047549502495
0	3921	192.04316002502	0.047549502495
0	3923	192.14316002502	0.047549502495
0	3925	192.24316002502	0.047549502495
0	3926	192.31850491	0.047549502495
0	3927	192.34316002502	0.047549502495
0	3929	192.44316002502	0.047549502495
0	3931	192.54316002502	0.047549502495
0	3933	192.64316002502	0.047549502495
0	3935	192.74316002502	0.047549502495
0	3937	192.84316002502	0.047549502495
0	3938	192.863962915	0.047549502495
0	3939	192.94316002502	0.047549502495
0	3941	193.04316002502	0.047549502495
0	3943	193.14316002502	0.047549502495
0	3945	193.24316002502	0.047549502495
0	3946	193.296766252	0.047549502495
0	3947	193.34316002502	0.047549502495
0	3949	193.44316002502	0.047549502495
0	3951	193.54316002502	0.047549502495
0	3953	193.64316002502	0.047549502495
0	3955	193.74316002502	0.047549502495
0	3957	193.84316002502	0.047549502495
0	3957	193.8450397	0.047549502495
0	3959	193.94316002502	0.047549502495
0	3961	194.04316002502	0.047549502495
0	3963	194.14316002502	0.047549502495
0	3965	194.24316002502	0.047549502495
0	3967	194.34316002502	0.047549502495
0	3968	194.429315332	0.047549502495
0	3969	194.44316002502	0.047549502495
0	3971	194.54316002502	0.047549502495
0	3973	194.64316002502	0.047549502495
0	3975	194.74316002502	0.047549502495
0	3977	194.84316002502	0.047549502495
0	3978	194.915171389	0.047549502495
0	3979	194.94316002502	0.047549502495
0	3981	195.04316002502	0.047549502495
0	3983	195.14316002502	0.047549502495
0	3985	195.24316002502	0.047549502495
0	3987	195.34316002502	0.047549502495
0	3988	195.418864774	0.047549502495
0	3989	195.44316002502	0.047549502495
0	3991	195.54316002502	0.047549502495
0	3993	195.64316002502	0.047549502495
0	3995	195.74316002502	0.047549502495
0	3997	195.84316002502	0.047549502495
0	3998	195.891030451	0.047549502495
0	3999	195.94316002502	0.047549502495
0	4001	196.04316002502	0.047549502495
0	4003	196.14316002502	0.047549502495
0	4005	196.24316002502	0.047549502495
0	4007	196.34316002502	0.047549502495
0	4009	196.44316002502	0.047549502495
0	4010	196.508239456	0.047549502495
0	4011	196.54316002502	0.047549502495
0	4013	196.64316002502	0.047549502495
0	4015	196.74316002502	0.047549502495
0	4017	196.84316002502	0.047549502495
0	4019	196.94316002502	0.047549502495
0	4021	197.04316002502	0.047549502495
0	4022	197.090009755	0.047549502495
0	4023	197.14316002502	0.047549502495
0	4025	197.24316002502	0.047549502495
0	4027	197.34316002502	0.047549502495
0	4029	197.44316002502	0.047549502495
0	4031	197.54316002502	0.047549502495
0	4033	197.64316002502	0.047549502495
0	4034	197.690815027	0.047549502495
0	4035	197.74316002502	0.047549502495
0	4037	197.84316002502	0.047549502495
0	4039	197.94316002502	0.047549502495
0	4041	198.04316002502	0.047549502495
0	4043	198.14316002502	0.047549502495
0	4044	198.198262	0.047549502495
0	4045	198.24316002502	0.047549502495
0	4047	198.34316002502	0.047549502495
0	4049	198.44316002502	0.047549502495
0	4051	198.54316002502	0.047549502495
0	4053	198.64316002502	0.047549502495
0	4054	198.700821145	0.047549502495
0	4055	198.74316002502	0.047549502495
0	4057	198.84316002502	0.047549502495
0	4059	198.94316002502	0.047549502495
0	4061	199.04316002502	0.047549502495
0	4062	199.128340132	0.047549502495
0	4063	199.14316002502	0.047549502495
0	4065	199.24316002502	0.047549502495
0	4067	199.34316002502	0.047549502495
0	4069	199.44316002502	0.047549502495
0	4071	199.54316002502	0.047549502495
0	4072	199.604176726	0.047549502495
0	4073	199.64316002502	0.047549502495
0	4075	199.74316002502	0.047549502495
0	4077	199.84316002502	0.047549502495
0	4079	199.94316002502	0.047549502495
0	4080	200.04130438	0.047549502495
0	4081	200.04316002502	0.047549502495
0	4083	200.14316002502	0.047549502495
0	4085	200.24316002502	0.047549502495
0	4087	200.34316002502	0.047549502495
0	4089	200.44316002502	0.047549502495
0	4090	200.535375346	0.047549502495
0	4091	200.54316002502	0.047549502495
0	4093	200.64316002502	0.047549502495
0	4095	200.74316002502	0.047549502495
0	4097	200.84316002502	0.047549502495
0	4099	200.94316002502	0.047549502495
0	4100	200.979328684	0.047549502495
0	4101	201.04316002502	0.047549502495
0	4103	201.14316002502	0.047549502495
0	4105	201.24316002502	0.047549502495
0	4107	201.34316002502	0.047549502495
0	4109	201.44316002502	0.047549502495
0	4110	201.512980945	0.047549502495
0	4111	201.54316002502	0.047549502495
0	4113	201.64316002502	0.047549502495
0	4115	201.74316002502	0.047549502495
0	4117	201.84316002502	0.047549502495
0	4119	201.94316002502	0.047549502495
0	4120	201.994747009	0.047549502495
0	4121	202.04316002502	0.047549502495
0	4123	202.14316002502	0.047549502495
0	4125	202.24316002502	0.047549502495
0	4127	202.34316002502	0.047549502495
0	4129	202.44316002502	0.047549502495
0	4129	202.445855857	0.047549502495
0	4131	202.54316002502	0.047549502495
0	4133	202.64316002502	0.047549502495
0	4135	202.74316002502	0.047549502495
0	4137	202.84316002502	0.047549502495
0	4138	202.890715138	0.047549502495
0	4139	202.94316002502	0.047549502495
0	4141	203.04316002502	0.047549502495
0	4143	203.140783674794	0.047549502495
0	4144	203.14316002502	0.047559007895904
0	4145	203.18650486	0.047732387235824
0	4146	203.24316002502	0.047959007895904
0	4147	203.253408051044	0.048
0	4149	203.34316002502	0.048359007895904
0	4151	203.378408051044	0.0485
0	4152	203.44316002502	0.048759007895904
0	4154	203.503408051044	0.049
0	4155	203.54316002502	0.049159007895904
0	4157	203.628408051044	0.0495
0	4158	203.64316002502	0.049559007895904
0	4159	203.688391015	0.049739931855824
0	4160	203.74316002502	0.049959007895904
0	4161	203.753408051044	0.05
0	4164	203.84316002502	0.05
0	4167	203.94316002502	0.05
0	4168	203.985166801	0.05
0	4170	204.04316002502	0.05
0	4172	204.14316002502	0.05
0	4175	204.24316002502	0.05
0	4178	204.34316002502	0.05
0	4181	204.44316002502	0.05
0	4182	204.48490111	0.05
0	4184	204.54316002502	0.05
0	4187	204.64316002502	0.05
0	4189	204.74316002502	0.05
0	4191	204.772524922	0.05
0	4192	204.84316002502	0.05
0	4195	204.94316002502	0.05
0	4196	205.010751091	0.05
0	4198	205.04316002502	0.05
[...]
2	12846	628.622413291891	0.05
2	12848	628.722413291891	0.05
2	12849	628.796089200993	0.05
2	12850	628.822413291891	0.05
2	12852	628.922413291891	0.05
2	12854	629.022413291891	0.05
2	12856	629.122413291891	0.05
2	12858	629.222413291891	0.05
2	12859	629.295368835993	0.0495
2	12859	629.295368835993	0.0495
2	12860	629.322413291891	0.049608177823592
2	12862	629.422413291891	0.05
2	12864	629.522413291891	0.05
2	12866	629.622413291891	0.05
2	12868	629.722413291891	0.05
2	12869	629.768899887993	0.05
2	12870	629.822413291891	0.05
2	12872	629.922413291891	0.05
2	12874	630.022413291891	0.05
2	12876	630.122413291891	0.05
2	12878	630.222413291891	0.05
2	12878	630.234015672993	0.05
2	12880	630.322413291891	0.05
2	12882	630.422413291891	0.05
2	12884	630.522413291891	0.05
2	12886	630.622413291891	0.05
2	12888	630.722413291891	0.0495
2	12888	630.722413291891	0.0495
2	12889	630.788496540993	0.049764332996408
2	12890	630.822413291891	0.0499
2	12892	630.922413291891	0.05
2	12894	631.022413291891	0.05
2	12896	631.122413291891	0.05
2	12898	631.222413291891	0.05
2	12898	631.243905981993	0.05
2	12900	631.322413291891	0.05
2	12902	631.422413291891	0.05
2	12904	631.522413291891	0.05
2	12906	631.622413291891	0.05
2	12907	631.721141829993	0.05
2	12908	631.722413291891	0.05
2	12910	631.822413291891	0.05
2	12912	631.922413291891	0.05
2	12914	632.022413291891	0.05
2	12916	632.122413291891	0.0495
2	12916	632.122413291891	0.0495
2	12917	632.216174226993	0.049875043740408
2	12918	632.222413291891	0.0499
2	12920	632.322413291891	0.05
2	12922	632.422413291891	0.05
2	12924	632.522413291891	0.05
2	12925	632.612057229993	0.05
2	12926	632.622413291891	0.05
2	12928	632.722413291891	0.05
2	12930	632.822413291891	0.05
2	12932	632.922413291891	0.05
2	12934	633.022413291891	0.05
2	12935	633.085322034993	0.05
2	12936	633.122413291891	0.05
2	12938	633.222413291891	0.05
2	12940	633.322413291891	0.05
2	12942	633.422413291891	0.05
2	12944	633.522413291891	0.0495
2	12944	633.522413291891	0.0495
2	12945	633.557672028993	0.049641034948408
2	12946	633.622413291891	0.0499
2	12948	633.722413291891	0.05
2	12950	633.822413291891	0.05
2	12953	633.922413291891	0.05
2	12956	634.022413291891	0.05
2	12956	634.044523740993	0.05
2	12959	634.122413291891	0.05
2	12962	634.222413291891	0.05
2	12965	634.322413291891	0.05
2	12967	634.422413291891	0.05
2	12969	634.512277368993	0.05
2	12970	634.522413291891	0.05
2	12973	634.622413291891	0.05
2	12976	634.722413291891	0.05
2	12979	634.822413291891	0.05
2	12981	634.922413291891	0.05
2	12984	635.022413291891	0.05
2	12986	635.058041646993	0.05
2	12987	635.122413291891	0.05
2	12990	635.222413291891	0.05
2	12993	635.322413291891	0.05
2	12995	635.422413291891	0.05
2	12998	635.522413291891	0.05
2	13000	635.580422709993	0.05
2	13001	635.622413291891	0.05
2	13004	635.722413291891	0.05
2	13007	635.822413291891	0.05
2	13009	635.922413291891	0.05
2	13012	636.022413291891	0.05
2	13015	636.122413291891	0.05
2	13015	636.132431613993	0.05
2	13018	636.222413291891	0.05
2	13021	636.322413291891	0.05
2	13023	636.422413291891	0.05
2	13026	636.522413291891	0.05
2	13029	636.622413291891	0.05
2	13031	636.681640095993	0.05
2	13032	636.722413291891	0.0495
2	13032	636.722413291891	0.0495
2	13034	636.822413291891	0.0499
2	13036	636.922413291891	0.05
2	13038	637.022413291891	0.05
2	13040	637.122413291891	0.05
2	13041	637.203779226993	0.05
2	13042	637.222413291891	0.05
2	13044	637.322413291891	0.05
2	13046	637.422413291891	0.05
2	13048	637.522413291891	0.05
2	13050	637.622413291891	0.05
2	13052	637.722413291891	0.05
2	13053	637.811189010993	0.05
2	13054	637.822413291891	0.05
2	13056	637.922413291891	0.05
2	13058	638.022413291891	0.05
2	13060	638.122413291891	0.05
2	13062	638.222413291891	0.0495
2	13062	638.222413291891	0.0495
2	13064	638.322413291891	0.0499
2	13066	638.422413291891	0.05
2	13066	638.444225280993	0.05
2	13068	638.522413291891	0.05
2	13070	638.622413291891	0.05
2	13072	638.722413291891	0.05
2	13074	638.822413291891	0.05
2	13076	638.922413291891	0.05
2	13078	639.022413291891	0.05
2	13078	639.041513724993	0.05
2	13080	639.122413291891	0.05
2	13082	639.222413291891	0.05
2	13084	639.322413291891	0.05
2	13086	639.422413291891	0.05
2	13088	639.522413291891	0.05
2	13089	639.594075189993	0.05
2	13090	639.622413291891	0.0495
2	13090	639.622413291891	0.0495
2	13092	639.722413291891	0.0499
2	13094	639.822413291891	0.05
2	13096	639.922413291891	0.05
2	13098	640.022413291891	0.05
2	13100	640.122413291891	0.05
2	13100	640.139831025993	0.05
2	13102	640.222413291891	0.05
2	13104	640.322413291891	0.05
2	13106	640.422413291891	0.05
2	13108	640.522413291891	0.05
2	13110	640.622413291891	0.05
2	13110	640.636184490993	0.05
2	13112	640.722413291891	0.05
2	13114	640.822413291891	0.05
2	13116	640.922413291891	0.05
2	13118	641.022413291891	0.05
2	13120	641.122413291891	0.0495
2	13120	641.122413291891	0.0495
2	13120	641.146448610993	0.049596141276408
2	13122	641.222413291891	0.0499
2	13124	641.322413291891	0.05
2	13126	641.422413291891	0.05
2	13128	641.522413291891	0.05
2	13129	641.599116966993	0.05
2	13130	641.622413291891	0.05
2	13132	641.722413291891	0.05
2	13134	641.822413291891	0.05
2	13134	641.838679527993	0.05
2	13136	641.922413291891	0.05
2	13138	642.022413291891	0.05
2	13140	642.122413291891	0.05
2	13142	642.222413291891	0.05
2	13143	642.313454055993	0.05
2	13144	642.322413291891	0.05
2	13146	642.422413291891	0.0495
2	13146	642.422413291891	0.0495
2	13148	642.522413291891	0.0499
2	13150	642.622413291891	0.05
2	13152	642.722413291891	0.05
2	13153	642.763866162993	0.05
2	13154	642.822413291891	0.05
2	13156	642.922413291891	0.05
2	13158	643.022413291891	0.05
2	13160	643.122413291891	0.05
2	13162	643.222413291891	0.05
2	13162	643.237820268993	0.05
2	13164	643.322413291891	0.05
2	13166	643.422413291891	0.05
2	13168	643.522413291891	0.05
2	13170	643.622413291891	0.05
2	13172	643.722413291891	0.05
2	13173	643.815404544993	0.05
2	13174	643.822413291891	0.0495
2	13174	643.822413291891	0.0495
2	13176	643.922413291891	0.0499
2	13178	644.022413291891	0.05
2	13180	644.122413291891	0.05
2	13182	644.222413291891	0.05
2	13184	644.322413291891	0.05
2	13185	644.368939212993	0.05
2	13186	644.422413291891	0.05
2	13188	644.522413291891	0.05
2	13190	644.622413291891	0.05
2	13192	644.722413291891	0.05
2	13193	644.806240398993	0.05
2	13194	644.822413291891	0.05
2	13196	644.922413291891	0.05
2	13198	645.022413291891	0.05
2	13200	645.122413291891	0.05
2	13202	645.222413291891	0.05
2	13203	645.289875066993	0.0495
2	13203	645.289875066993	0.0495
2	13204	645.322413291891	0.049630152899592
2	13206	645.422413291891	0.05
2	13208	645.522413291891	0.05
2	13210	645.622413291891	0.05
2	13212	645.722413291891	0.05
2	13212	645.744398220993	0.05
2	13214	645.822413291891	0.05
2	13216	645.922413291891	0.05
2	13218	646.022413291891	0.05
2	13220	646.122413291891	0.05
2	13222	646.222413291891	0.05
2	13222	646.234736658993	0.05
2	13224	646.322413291891	0.05
2	13226	646.422413291891	0.05
2	13228	646.522413291891	0.05
2	13230	646.622413291891	0.05
2	13231	646.713682383993	0.0495
2	13231	646.713682383993	0.0495
2	13232	646.722413291891	0.049534923631592
2	13234	646.822413291891	0.049934923631592
2	13236	646.922413291891	0.05
2	13238	647.022413291891	0.05
2	13240	647.122413291891	0.05
2	13241	647.183225685993	0.05
2	13242	647.222413291891	0.05
2	13244	647.322413291891	0.05
2	13246	647.422413291891	0.05
2	13248	647.522413291891	0.05
2	13250	647.622413291891	0.05
2	13251	647.688832713993	0.05
2	13252	647.722413291891	0.05
2	13254	647.822413291891	0.05
2	13256	647.922413291891	0.05
2	13258	648.022413291891	0.05
2	13260	648.122413291891	0.0495
2	13260	648.122413291891	0.0495
2	13261	648.188787885993	0.049765498376408
2	13262	648.222413291891	0.0499
2	13264	648.322413291891	0.05
2	13266	648.422413291891	0.05
2	13268	648.522413291891	0.05
2	13270	648.622413291891	0.05
2	13270	648.633407733993	0.05
2	13272	648.722413291891	0.05
2	13274	648.822413291891	0.05
2	13276	648.922413291891	0.05
2	13278	649.022413291891	0.05
2	13279	649.106264727993	0.05
2	13280	649.122413291891	0.05
2	13282	649.222413291891	0.05
2	13284	649.322413291891	0.05
2	13286	649.422413291891	0.05
2	13288	649.522413291891	0.0495
2	13288	649.522413291891	0.0495
2	13289	649.567327872993	0.049679658324408
2	13290	649.622413291891	0.0499
2	13292	649.722413291891	0.05
2	13294	649.822413291891	0.05
2	13296	649.922413291891	0.05
2	13298	650.022413291891	0.05
2	13298	650.030774913993	0.05
2	13301	650.122413291891	0.05
2	13303	650.222413291891	0.05
2	13305	650.322413291891	0.05
2	13307	650.422413291891	0.05
2	13307	650.460924456993	0.05
2	13309	650.522413291891	0.05
2	13311	650.622413291891	0.05
2	13313	650.722413291891	0.05
2	13315	650.822413291891	0.05
2	13317	650.922413291891	0.05
2	13318	650.979226122993	0.05
2	13319	651.022413291891	0.05
2	13321	651.122413291891	0.05
2	13323	651.222413291891	0.05
2	13325	651.322413291891	0.05
2	13327	651.422413291891	0.05
2	13328	651.493050399993	0.05
2	13329	651.522413291891	0.05
2	13331	651.622413291891	0.05
2	13333	651.722413291891	0.05
2	13335	651.822413291891	0.05
2	13337	651.922413291891	0.05
2	13337	651.963314223993	0.05
2	13339	652.006752031532	0.05
2	13341	652.106752031532	0.05
2	13342	652.119139744517	0.05
2	13344	652.206752031532	0.0495
2	13344	652.206752031532	0.0495
2	13346	652.306752031532	0.0495
2	13348	652.406752031532	0.0495
2	13348	652.433607000993	0.0495
2	13350	652.506752031532	0.0495
2	13352	652.606752031532	0.0495
2	13354	652.706752031532	0.0495
2	13356	652.806752031532	0.0495
2	13358	652.906752031532	0.0495
2	13358	652.952657265993	0.0495
2	13360	653.006752031532	0.0495
2	13362	653.106752031532	0.0495
2	13364	653.206752031532	0.0495
2	13366	653.306752031532	0.0495
2	13368	653.406752031532	0.0495
2	13368	653.435178999993	0.0495
2	13370	653.506752031532	0.0495
2	13372	653.606752031532	0.049005
2	13372	653.606752031532	0.049005
2	13374	653.706752031532	0.049005
2	13376	653.806752031532	0.049005
2	13378	653.906752031532	0.049005
2	13378	653.935126239993	0.049005
2	13380	654.006752031532	0.049005
2	13382	654.106752031532	0.049005
2	13384	654.206752031532	0.049005
2	13386	654.306752031532	0.049005
2	13388	654.406752031532	0.049005
2	13388	654.455762115993	0.049005
2	13390	654.506752031532	0.049005
2	13392	654.606752031532	0.049005
2	13394	654.706752031532	0.049005
2	13394	654.736631073993	0.049005
2	13396	654.806752031532	0.049005
2	13398	654.906752031532	0.049005
2	13400	655.006752031532	0.04851495
2	13400	655.006752031532	0.04851495
2	13402	655.106752031532	0.04851495
2	13403	655.195903845993	0.04851495
2	13404	655.206752031532	0.04851495
2	13406	655.306752031532	0.04851495
2	13408	655.406752031532	0.04851495
2	13410	655.506752031532	0.04851495
2	13412	655.606752031532	0.04851495
2	13413	655.683607602993	0.04851495
2	13414	655.706752031532	0.04851495
2	13416	655.806752031532	0.04851495
2	13418	655.906752031532	0.04851495
2	13420	656.006752031532	0.04851495
2	13422	656.106752031532	0.04851495
2	13424	656.206752031532	0.04851495
2	13424	656.251604703993	0.04851495
2	13426	656.306752031532	0.04851495
2	13428	656.406752031532	0.0480298005
2	13428	656.406752031532	0.0480298005
2	13430	656.506752031532	0.0480298005
2	13432	656.606752031532	0.0480298005
2	13434	656.706752031532	0.0480298005
2	13436	656.806752031532	0.0480298005
2	13438	656.906752031532	0.0480298005
2	13438	656.972348232993	0.0480298005
2	13440	657.006752031532	0.0480298005
2	13442	657.106752031532	0.0480298005
2	13444	657.206752031532	0.0480298005
2	13446	657.306752031532	0.0480298005
2	13448	657.406752031532	0.0480298005
2	13449	657.505094811993	0.0480298005
2	13450	657.506752031532	0.0480298005
2	13452	657.606752031532	0.0480298005
2	13454	657.706752031532	0.0480298005
2	13456	657.806752031532	0.0480298005
2	13458	657.906752031532	0.047549502495
2	13458	657.906752031532	0.047549502495
2	13458	657.954455298993	0.047549502495
2	13460	658.006752031532	0.047549502495
2	13462	658.106752031532	0.047549502495
2	13464	658.206752031532	0.047549502495
2	13466	658.306752031532	0.047549502495
2	13468	658.406752031532	0.047549502495
2	13470	658.506752031532	0.047549502495
2	13471	658.589780685993	0.047549502495
2	13472	658.606752031532	0.047549502495
2	13474	658.706752031532	0.047549502495
2	13476	658.806752031532	0.047549502495
2	13478	658.906752031532	0.047549502495
2	13480	659.006752031532	0.047549502495
2	13482	659.106752031532	0.047549502495
2	13484	659.206752031532	0.047549502495
2	13484	659.231593149993	0.047549502495
2	13486	659.306752031532	0.04707400747005
2	13486	659.306752031532	0.04707400747005
2	13488	659.406752031532	0.04707400747005
2	13490	659.506752031532	0.04707400747005
2	13492	659.606752031532	0.04707400747005
2	13494	659.706752031532	0.04707400747005
2	13495	659.713965072465	0.04707400747005
2	13497	659.806752031532	0.047445155306318
2	13498	659.820463204952	0.0475
2	13498	659.826944034993	0.047525923320164
2	13500	659.906752031532	0.04784515530632
2	13501	659.945463204952	0.048
2	13503	660.006752031532	0.04824515530632
2	13504	660.070463204952	0.0485
2	13506	660.106752031532	0.04864515530632
2	13508	660.195463204952	0.049
2	13509	660.206752031532	0.04904515530632
2	13509	660.227904405993	0.049129764804164
2	13511	660.306752031532	0.04944515530632
2	13512	660.320463204952	0.0495
2	13514	660.406752031532	0.04984515530632
2	13515	660.445463204952	0.05
2	13516	660.482767806993	0.05
2	13517	660.506752031532	0.05
2	13519	660.606752031532	0.05
2	13521	660.706752031532	0.05
2	13523	660.806752031532	0.05
2	13525	660.906752031532	0.05
2	13525	660.965429847993	0.05
2	13527	661.006752031532	0.05
2	13529	661.106752031532	0.05
2	13531	661.206752031532	0.05
2	13531	661.212510264993	0.05
2	13533	661.306752031532	0.05
2	13535	661.406752031532	0.05
2	13537	661.506752031532	0.05
2	13539	661.606752031532	0.05
2	13539	661.667540970993	0.05
2	13541	661.706752031532	0.05
2	13543	661.806752031532	0.05
2	13545	661.906752031532	0.05
2	13547	662.006752031532	0.05
2	13549	662.106752031532	0.05
2	13549	662.147255724993	0.05
2	13551	662.206752031532	0.05
2	13553	662.306752031532	0.05
2	13555	662.406752031532	0.05
2	13557	662.506752031532	0.05
2	13559	662.606752031532	0.05
2	13561	662.706752031532	0.05
2	13563	662.806752031532	0.05
2	13563	662.808367983993	0.05
2	13565	662.906752031532	0.05
2	13567	663.006752031532	0.05
2	13569	663.106752031532	0.05
2	13571	663.206752031532	0.05
2	13571	663.227408277993	0.0495
2	13571	663.227408277993	0.0495
2	13573	663.306752031532	0.049817375014156
2	13575	663.406752031532	0.05
2	13577	663.506752031532	0.05
2	13579	663.606752031532	0.05
2	13581	663.706752031532	0.05
2	13581	663.755268036993	0.05
2	13583	663.806752031532	0.05
2	13585	663.906752031532	0.05
2	13587	664.006752031532	0.05
2	13589	664.106752031532	0.05
2	13591	664.206752031532	0.05
2	13593	664.306752031532	0.05
2	13595	664.406752031532	0.05
2	13595	664.458163632993	0.05
2	13597	664.506752031532	0.05
2	13599	664.606752031532	0.05
2	13601	664.706752031532	0.05
2	13603	664.806752031532	0.05
2	13605	664.906752031532	0.05
2	13607	665.006752031532	0.05
2	13607	665.062725192993	0.05
2	13609	665.106752031532	0.05
2	13611	665.206752031532	0.05
2	13613	665.306752031532	0.05
2	13615	665.406752031532	0.05
2	13617	665.506752031532	0.05
2	13619	665.606752031532	0.05
2	13619	665.625779151993	0.05
2	13621	665.706752031532	0.05
2	13623	665.806752031532	0.05
2	13625	665.906752031532	0.05
2	13627	666.006752031532	0.05
2	13628	666.093109086993	0.05
2	13629	666.106752031532	0.05
2	13631	666.206752031532	0.05
2	13633	666.306752031532	0.05
2	13633	666.352945881993	0.05
2	13635	666.406752031532	0.05
2	13637	666.506752031532	0.05
2	13639	666.606752031532	0.05
2	13641	666.706752031532	0.05
2	13643	666.806752031532	0.05
2	13644	666.881893983993	0.05
2	13645	666.906752031532	0.05
2	13647	667.006752031532	0.05
2	13649	667.106752031532	0.05
2	13649	667.145413530993	0.05
2	13651	667.206752031532	0.05
2	13653	667.306752031532	0.05
2	13655	667.406752031532	0.05
2	13657	667.506752031532	0.05
2	13658	667.584967719993	0.05
2	13659	667.606752031532	0.05
2	13661	667.706752031532	0.05
2	13663	667.806752031532	0.05
2	13665	667.906752031532	0.05
2	13667	668.006752031532	0.05
2	13667	668.069809557993	0.05
2	13669	668.106752031532	0.05
2	13671	668.206752031532	0.05
2	13673	668.306752031532	0.05
2	13675	668.406752031532	0.05
2	13677	668.506752031532	0.05
2	13677	668.546686560993	0.05
2	13679	668.606752031532	0.05
2	13681	668.706752031532	0.05
2	13683	668.806752031532	0.05
2	13685	668.906752031532	0.05
2	13685	668.959575243993	0.05
2	13687	669.006752031532	0.05
2	13689	669.106752031532	0.05
2	13691	669.206752031532	0.05
2	13693	669.306752031532	0.05
2	13695	669.406752031532	0.05
2	13697	669.506752031532	0.05
2	13698	669.589458123993	0.05
2	13699	669.606752031532	0.05
2	13701	669.706752031532	0.05
2	13703	669.806752031532	0.05
2	13705	669.906752031532	0.05
2	13707	670.006752031532	0.05
2	13709	670.106752031532	0.05
2	13709	670.144599576993	0.05
2	13711	670.206752031532	0.05
2	13713	670.306752031532	0.05
2	13715	670.406752031532	0.05
2	13717	670.506752031532	0.05
2	13717	670.572242499993	0.05
2	13719	670.606752031532	0.05
2	13721	670.706752031532	0.05
2	13723	670.806752031532	0.05
2	13725	670.906752031532	0.05
2	13727	671.006752031532	0.05
2	13727	671.015770914993	0.05
2	13729	671.106752031532	0.05
2	13731	671.206752031532	0.05
2	13733	671.306752031532	0.05
2	13735	671.406752031532	0.05
2	13735	671.471539812993	0.05
2	13735	671.47283494131	0.05
3	0	0	0.004
3	940	46.974101355068	0
3	1115	55.647323433936	0.004
3	1146	57.064420462883	0
3	1474	72.27990431422	0.004
3	1695	82.756674403453	0
3	1887	92.278328262465	0.004
3	2080	101.79338021211	0
3	2771	136.253796759666	0.004
3	3198	156.895934222875	0
3	3546	173.919754491924	0.004
3	3652	178.868484692367	0
3	3776	185.001686638028	0.004
3	3916	191.797627992017	0
3	4163	203.814712309985	0.004
3	4717	230.946034243117	0
3	4885	239.256931385633	0.004
3	4910	240.229969342008	0
3	5382	263.638275301156	0.004
3	5726	280.047424759172	0
3	6052	295.693497023723	0.004
3	6539	319.906997348086	0
3	7494	367.15657372811	0.004
3	7602	371.718954077742	0
3	7812	382.127310491414	0.004
3	8046	393.450150199956	0
3	9139	447.348695876428	0.004
3	9647	470.866688617616	0
3	10505	513.623653919958	0.004
3	11462	560.546417142891	0
3	11551	564.981211946531	0.004
3	11684	571.390896766288	0
3	12747	623.986102936563	0.004
3	13342	652.119139744517	0
3	13495	659.713965072465	0.004
4	0	0	0.004
4	461	23.08057828677	0
4	1205	59.885682236611	0.004
4	2694	132.408408266214	0
4	2814	137.909588969303	0.004
4	2879	140.979641036666	0
4	3479	170.878963072841	0.004
4	3755	184.028354312458	0
4	4143	203.140783674794	0.004
4	4977	243.503765138606	0
4	5325	260.870411241577	0.004
4	5491	268.429274662744	0
4	5999	293.67215394986	0.004
4	6979	341.834603320511	0
4	7192	352.450411899351	0.004
4	7671	375.133251603324	0
4	8281	405.103328867932	0.004
4	8710	426.072077842821	0
4	8733	427.126221942819	0.004
4	9102	445.544957700573	0
4	9587	468.194669163536	0.004
4	11791	576.651186653872	0
4	11953	584.729072671311	0.004
4	11997	586.58831519334	0
4	12952	633.899947124837	0.004
5	0	0	0.004
5	940	46.974101355068	0
5	1115	55.647323433936	0.004
5	1146	57.064420462883	0
5	1474	72.27990431422	0.004
5	1695	82.756674403453	0
5	1887	92.278328262465	0.004
5	2080	101.79338021211	0
5	2771	136.253796759666	0.004
5	3198	156.895934222875	0
5	3546	173.919754491924	0.004
5	3652	178.868484692367	0
5	3776	185.001686638028	0.004
5	3916	191.797627992017	0
5	4163	203.814712309985	0.004
5	4717	230.946034243117	0
5	4885	239.256931385633	0.004
5	4910	240.229969342008	0
5	5382	263.638275301156	0.004
5	5726	280.047424759172	0
5	6052	295.693497023723	0.004
5	6539	319.906997348086	0
5	7494	367.15657372811	0.004
5	7602	371.718954077742	0
5	7812	382.127310491414	0.004
5	8046	393.450150199956	0
5	9139	447.348695876428	0.004
5	9647	470.866688617616	0
5	10505	513.623653919958	0.004
5	11462	560.546417142891	0
5	11551	564.981211946531	0.004
5	11684	571.390896766288	0
5	12747	623.986102936563	0.004
5	13342	652.119139744517	0
5	13495	659.713965072465	0.004

