version 2
run Mysterio_ex2-0-20210901-09:49:53-2790
attr configname Mysterio_ex2
attr datetime 20210901-09:49:53
attr experiment Mysterio_ex2
attr inifile omnetpp.ini
attr iterationvars ""
attr iterationvarsf ""
attr measurement ""
attr network MysterioCommunication2
attr processid 2790
attr repetition 0
attr replication #0
attr resultdir results
attr runnumber 0
attr seedset 0
param *.host[*].mobility.numeroDrones 2
param *.numHosts 2
param *.host[*].osgModel "\"3d/drone.ive.100.scale.0,0,90.rot\""
param *.basestation.osgModel "\"3d/car.ive.50.scale.0,0,90.rot\""
param *.canvasVisualizer.energyStorageVisualizer.displayEnergyStorages true
param *.host[*].hasStatus true
param *.host[*].energyStorage.typename "\"SimpleEpEnergyStorage\""
param *.host[*].wlan[*].radio.energyConsumer.typename "\"StateBasedEpEnergyConsumer\""
param *.host[*].energyManagement.typename "\"SimpleEpEnergyManagement\""
param *.host[*].energyStorage.nominalCapacity 0.05J
param *.host[*].energyManagement.nodeShutdownCapacity "0.1 * energyStorage.nominalCapacity"
param *.host[*].energyManagement.nodeStartCapacity "0.5 * energyStorage.nominalCapacity"
param *.host[*].energyStorage.initialCapacity 0.05J
param *.host[*].energyGenerator.typename "\"AlternatingEpEnergyGenerator\""
param *.host[*].energyGenerator.powerGeneration 4mW
param *.host[*].energyGenerator.sleepInterval exponential(25s)
param *.host[*].energyGenerator.generationInterval exponential(25s)
param *.host[*].mobility.typename "\"UAVMobility\""
param *.host[*].mobility.changeInterval 1s
param *.host[*].mobility.initialMovementHeading "uniform(0deg, 360deg)"
param *.host[*].mobility.initialMovementElevation "uniform(-90deg, 90deg)"
param *.host[*].mobility.angleDelta uniform(-10deg,10deg)
param *.host[*].mobility.rotationAxisAngle uniform(-10deg,10deg)
param *.host[*].mobility.speed uniform(10mps,20mps)
param *.host[*].mobility.faceForward false
param *.host[*].mobility.initialX 220m
param *.host[*].mobility.initialY 220m
param *.host[*].mobility.initialZ 80m
param *.visualizer.osgVisualizer.typename "\"IntegratedOsgVisualizer\""
param *.visualizer.osgVisualizer.sceneVisualizer.clearColor "\"skyblue\""
param *.visualizer.osgVisualizer.sceneVisualizer.sceneImage "\"showcases/desert\""
param *.visualizer.osgVisualizer.sceneVisualizer.sceneImageSize 5000m
param *.visualizer.osgVisualizer.sceneVisualizer.axisLength 1000m
param *.visualizer.osgVisualizer.sceneVisualizer.sceneMinX -2000m
param *.visualizer.osgVisualizer.sceneVisualizer.sceneMinY -2000m
param *.visualizer.osgVisualizer.sceneVisualizer.sceneMinZ 0m
param *.visualizer.osgVisualizer.sceneVisualizer.sceneMaxX 3000m
param *.visualizer.osgVisualizer.sceneVisualizer.sceneMaxY 3000m
param *.visualizer.osgVisualizer.sceneVisualizer.sceneMaxZ 1000m
param *.visualizer.osgVisualizer.networkNodeVisualizer.displayModuleName false
param *.visualizer.*.mobilityVisualizer.displayMobility true
param *.visualizer.*.mobilityVisualizer.displayPositions true
param *.visualizer.*.mobilityVisualizer.displayOrientations false
param *.visualizer.*.mobilityVisualizer.displayVelocities true
param *.visualizer.*.mobilityVisualizer.displayMovementTrails true
param *.visualizer.*.mobilityVisualizer.animationSpeed 3
param **.constraintAreaMinX 0m
param **.constraintAreaMinY 0m
param **.constraintAreaMinZ 0m
param **.constraintAreaMaxX 1000m
param **.constraintAreaMaxY 1000m
param **.constraintAreaMaxZ 1000m
param **.networkConfiguratorModule "\"\""

vector 0 MysterioCommunication2.host[0].energyStorage residualEnergyCapacity:vector ETV
attr interpolationmode linear
attr source residualEnergyCapacityChanged
attr title "Residual energy capacity, vector"
vector 1 MysterioCommunication2.host[0].energyGenerator powerGeneration:vector ETV
attr interpolationmode sample-hold
attr source powerGenerationChanged
attr title "Power generation, vector"
vector 2 MysterioCommunication2.host[1].energyStorage residualEnergyCapacity:vector ETV
attr interpolationmode linear
attr source residualEnergyCapacityChanged
attr title "Residual energy capacity, vector"
vector 3 MysterioCommunication2.host[1].energyGenerator powerGeneration:vector ETV
attr interpolationmode sample-hold
attr source powerGenerationChanged
attr title "Power generation, vector"
vector 4 MysterioCommunication2.host[0].energyStorage powerGeneration:vector ETV
attr interpolationmode sample-hold
attr source powerGenerationChanged
attr title "Power generation, vector"
vector 5 MysterioCommunication2.host[1].energyStorage powerGeneration:vector ETV
attr interpolationmode sample-hold
attr source powerGenerationChanged
attr title "Power generation, vector"
0	0	0	0.05
0	0	0.1	0.05
0	2	0.161374432	0.05
0	3	0.2	0.05
0	5	0.3	0.05
0	6	0.38172655	0.05
0	7	0.4	0.05
0	9	0.5	0.05
0	11	0.6	0.05
0	12	0.676474552	0.05
0	13	0.7	0.05
0	15	0.8	0.05
0	17	0.9	0.05
0	19	1	0.05
0	21	1.1	0.05
0	23	1.2	0.05
0	24	1.221458221	0.05
0	25	1.3	0.05
0	27	1.4	0.05
0	28	1.490897245	0.05
0	29	1.5	0.05
0	31	1.6	0.05
0	33	1.7	0.05
0	34	1.756759165	0.05
0	35	1.8	0.05
0	37	1.9	0.05
0	38	1.971506866	0.05
0	39	2	0.05
0	41	2.1	0.05
0	43	2.2	0.05
0	44	2.223147337	0.05
0	45	2.3	0.05
0	47	2.4	0.05
0	49	2.5	0.05
0	51	2.6	0.05
0	52	2.680359205	0.05
0	53	2.7	0.05
0	55	2.8	0.05
0	57	2.9	0.05
0	59	3	0.05
0	61	3.1	0.05
0	62	3.124484917	0.05
0	63	3.2	0.05
0	65	3.3	0.05
0	67	3.4	0.05
0	69	3.5	0.05
0	71	3.6	0.05
0	72	3.612255829	0.05
0	73	3.7	0.05
0	75	3.8	0.05
0	76	3.88855159	0.05
0	77	3.9	0.05
0	79	4	0.05
0	81	4.1	0.05
0	83	4.2	0.05
0	85	4.3	0.05
0	86	4.360228225	0.05
0	87	4.4	0.05
0	89	4.5	0.05
0	91	4.6	0.05
0	93	4.7	0.05
0	94	4.760820205	0.05
0	95	4.8	0.05
0	97	4.9	0.05
0	99	5	0.05
0	100	5.043699664	0.05
0	101	5.1	0.05
0	103	5.2	0.05
0	105	5.3	0.05
0	107	5.4	0.05
0	109	5.5	0.05
0	110	5.505571201	0.05
0	111	5.6	0.05
0	113	5.7	0.05
0	115	5.8	0.05
0	117	5.9	0.05
0	118	5.987325097	0.05
0	119	6	0.05
0	121	6.1	0.05
0	123	6.2	0.05
0	125	6.3	0.05
0	127	6.4	0.05
0	128	6.48554467	0.05
0	129	6.5	0.05
0	131	6.6	0.05
0	133	6.7	0.05
0	135	6.8	0.05
0	137	6.9	0.05
0	139	7	0.05
0	140	7.057524169	0.05
0	141	7.1	0.05
0	143	7.2	0.05
0	145	7.3	0.05
0	147	7.4	0.05
0	149	7.5	0.05
0	151	7.6	0.05
0	153	7.7	0.05
0	154	7.70577505	0.05
0	155	7.8	0.05
0	157	7.9	0.05
0	159	8	0.05
0	161	8.1	0.05
0	163	8.2	0.05
0	165	8.3	0.05
0	166	8.327277007	0.05
0	167	8.4	0.05
0	169	8.5	0.05
0	171	8.6	0.05
0	173	8.7	0.05
0	175	8.8	0.05
0	177	8.9	0.05
0	178	8.951057791	0.05
0	179	9	0.05
0	181	9.1	0.05
0	183	9.2	0.05
0	185	9.3	0.05
0	187	9.4	0.05
0	189	9.5	0.05
0	190	9.504053002	0.05
0	191	9.6	0.05
0	193	9.7	0.05
0	195	9.8	0.05
0	197	9.9	0.05
0	199	10	0.05
0	200	10.032825874	0.05
0	201	10.1	0.05
0	203	10.2	0.05
0	205	10.3	0.05
0	207	10.4	0.05
0	209	10.5	0.05
0	210	10.56571027	0.05
0	211	10.6	0.05
0	213	10.7	0.05
0	215	10.8	0.05
0	217	10.9	0.05
0	219	11	0.05
0	221	11.1	0.05
0	223	11.2	0.05
0	224	11.246080678	0.05
0	225	11.3	0.05
0	227	11.4	0.05
0	229	11.5	0.05
0	231	11.6	0.05
0	233	11.7	0.05
0	235	11.8	0.05
0	236	11.869130443	0.05
0	237	11.9	0.05
0	239	12	0.05
0	241	12.1	0.05
0	242	12.152367499	0.05
0	243	12.2	0.05
0	245	12.3	0.05
0	247	12.4	0.05
0	249	12.5	0.05
0	250	12.596079571	0.05
0	251	12.6	0.05
0	253	12.7	0.05
0	255	12.8	0.05
0	257	12.9	0.05
0	259	13	0.05
0	260	13.036007827	0.05
0	261	13.1	0.05
0	263	13.2	0.05
0	265	13.3	0.05
0	266	13.315773142	0.05
0	267	13.4	0.05
0	269	13.5	0.05
0	271	13.6	0.05
0	273	13.7	0.05
0	275	13.8	0.05
0	276	13.844654194	0.05
0	277	13.9	0.05
0	279	14	0.05
0	281	14.1	0.05
0	283	14.2	0.05
0	285	14.3	0.05
0	286	14.370476278	0.05
0	287	14.4	0.05
0	289	14.5	0.05
0	291	14.6	0.05
0	292	14.66350303	0.05
0	293	14.7	0.05
0	295	14.8	0.05
0	297	14.9	0.05
0	298	14.954902	0.05
0	299	15	0.05
0	301	15.1	0.05
0	303	15.2	0.05
0	305	15.3	0.05
0	306	15.377923753	0.05
0	307	15.4	0.05
0	309	15.5	0.05
0	311	15.6	0.05
0	313	15.7	0.05
0	314	15.782891311	0.05
0	315	15.8	0.05
0	317	15.9	0.05
0	319	16	0.05
0	321	16.1	0.05
0	322	16.185876157	0.05
0	323	16.2	0.05
0	325	16.3	0.05
0	327	16.4	0.05
0	329	16.5	0.05
0	331	16.6	0.05
0	332	16.668657403	0.05
0	333	16.7	0.05
0	335	16.8	0.05
0	337	16.9	0.05
0	338	16.951400341	0.05
0	339	17	0.05
0	341	17.1	0.05
0	342	17.178999097	0.05
0	343	17.2	0.05
0	345	17.3	0.05
0	347	17.4	0.05
0	349	17.5	0.05
0	350	17.599491469	0.05
0	351	17.6	0.05
0	353	17.7	0.05
0	355	17.8	0.05
0	357	17.9	0.05
0	359	18	0.05
0	360	18.042868249	0.05
0	361	18.1	0.05
0	363	18.2	0.05
0	365	18.3	0.05
0	367	18.4	0.05
0	368	18.492954208	0.05
0	369	18.5	0.05
0	371	18.6	0.05
0	373	18.7	0.05
0	375	18.8	0.05
0	377	18.9	0.05
0	378	18.951530578	0.05
0	379	19	0.05
0	381	19.1	0.05
0	383	19.2	0.05
0	384	19.213282276	0.05
0	385	19.3	0.05
0	387	19.4	0.05
0	388	19.487729596	0.05
0	389	19.5	0.05
0	391	19.6	0.05
0	393	19.7	0.05
0	395	19.8	0.05
0	397	19.9	0.05
0	398	19.954076689	0.05
0	399	20	0.05
0	401	20.1	0.05
0	403	20.2	0.05
0	405	20.3	0.05
0	407	20.4	0.05
0	408	20.423652688	0.05
0	409	20.5	0.05
0	411	20.6	0.05
0	412	20.651552581	0.05
0	413	20.7	0.05
0	415	20.8	0.05
0	417	20.9	0.05
0	418	20.923747702	0.05
0	419	21	0.05
0	421	21.1	0.05
0	423	21.2	0.05
0	425	21.3	0.05
0	426	21.398423365	0.05
0	427	21.4	0.05
0	429	21.5	0.05
0	431	21.6	0.05
0	433	21.7	0.05
0	435	21.8	0.05
0	436	21.839210641	0.05
0	437	21.9	0.05
0	439	22	0.05
0	441	22.1	0.05
0	443	22.2	0.05
0	444	22.257124924	0.05
0	445	22.3	0.05
0	447	22.4	0.05
0	449	22.5	0.05
0	450	22.538753137	0.05
0	451	22.6	0.05
0	453	22.7	0.05
0	455	22.8	0.05
0	457	22.9	0.05
0	459	23	0.05
0	460	23.071510324	0.05
0	461	23.08057828677	0.05
0	462	23.1	0.05
0	464	23.2	0.0495
0	464	23.2	0.0495
0	466	23.3	0.0495
0	468	23.4	0.0495
0	470	23.5	0.0495
0	472	23.6	0.0495
0	473	23.693982319	0.0495
0	474	23.7	0.0495
0	476	23.8	0.0495
0	478	23.9	0.0495
0	480	24	0.0495
0	482	24.1	0.0495
0	483	24.185020909	0.0495
0	484	24.2	0.0495
0	486	24.3	0.0495
0	488	24.4	0.0495
0	490	24.5	0.0495
0	492	24.6	0.0495
0	493	24.679461343	0.049005
0	493	24.679461343	0.049005
0	494	24.7	0.049005
0	496	24.8	0.049005
0	498	24.9	0.049005
0	499	24.933052999	0.049005
0	500	25	0.049005
0	502	25.1	0.049005
0	504	25.2	0.049005
0	506	25.3	0.049005
0	507	25.368559297	0.049005
0	508	25.4	0.049005
0	510	25.5	0.049005
0	512	25.6	0.049005
0	513	25.618479889	0.049005
0	514	25.7	0.049005
0	516	25.8	0.049005
0	518	25.9	0.049005
0	520	26	0.04851495
0	520	26	0.04851495
0	521	26.031194686	0.04851495
0	522	26.1	0.04851495
0	524	26.2	0.04851495
0	526	26.3	0.04851495
0	528	26.4	0.04851495
0	529	26.489517349	0.04851495
0	530	26.5	0.04851495
0	532	26.6	0.04851495
0	534	26.7	0.04851495
0	536	26.8	0.04851495
0	538	26.9	0.04851495
0	539	26.932798279	0.04851495
0	540	27	0.04851495
0	542	27.1	0.04851495
0	544	27.2	0.04851495
0	545	27.23257393	0.04851495
0	546	27.3	0.0480298005
0	546	27.3	0.0480298005
0	548	27.4	0.0480298005
0	550	27.5	0.0480298005
0	551	27.52281832	0.0480298005
0	552	27.6	0.0480298005
0	554	27.7	0.0480298005
0	556	27.8	0.0480298005
0	558	27.9	0.0480298005
0	559	27.96171781	0.0480298005
0	560	28	0.0480298005
0	562	28.1	0.0480298005
0	564	28.2	0.0480298005
0	566	28.3	0.0480298005
0	567	28.397635549	0.0480298005
0	568	28.4	0.0480298005
0	570	28.5	0.0480298005
0	572	28.6	0.0480298005
0	574	28.7	0.047549502495
0	574	28.7	0.047549502495
0	576	28.8	0.047549502495
0	577	28.884567601	0.047549502495
0	578	28.9	0.047549502495
0	580	29	0.047549502495
0	582	29.1	0.047549502495
0	584	29.2	0.047549502495
0	586	29.3	0.047549502495
0	587	29.333438242	0.047549502495
0	588	29.4	0.047549502495
0	590	29.5	0.047549502495
0	592	29.6	0.047549502495
0	594	29.7	0.047549502495
0	596	29.8	0.047549502495
0	597	29.84912254	0.047549502495
0	598	29.9	0.047549502495
0	600	30	0.047549502495
0	602	30.1	0.04707400747005
0	602	30.1	0.04707400747005
0	604	30.2	0.04707400747005
0	606	30.3	0.04707400747005
0	608	30.4	0.04707400747005
0	609	30.41335162	0.04707400747005
0	610	30.5	0.04707400747005
0	612	30.6	0.04707400747005
0	614	30.7	0.04707400747005
0	616	30.8	0.04707400747005
0	618	30.9	0.04707400747005
0	620	31	0.04707400747005
0	621	31.015890853	0.04707400747005
0	622	31.1	0.04707400747005
0	624	31.2	0.04707400747005
0	626	31.3	0.04707400747005
0	628	31.4	0.04707400747005
0	630	31.5	0.04707400747005
0	631	31.536109285	0.04660326739535
0	631	31.536109285	0.04660326739535
0	632	31.6	0.04660326739535
0	634	31.7	0.04660326739535
0	636	31.8	0.04660326739535
0	638	31.9	0.04660326739535
0	640	32	0.04660326739535
0	641	32.094227713	0.04660326739535
0	642	32.1	0.04660326739535
0	644	32.2	0.04660326739535
0	646	32.3	0.04660326739535
0	648	32.4	0.04660326739535
0	650	32.5	0.04660326739535
0	652	32.6	0.04660326739535
0	653	32.611956172	0.04660326739535
0	654	32.7	0.04660326739535
0	656	32.8	0.04660326739535
0	658	32.9	0.04660326739535
0	660	33	0.046137234721396
0	660	33	0.046137234721396
0	662	33.1	0.046137234721396
0	663	33.132239323	0.046137234721396
0	664	33.2	0.046137234721396
0	666	33.3	0.046137234721396
0	668	33.4	0.046137234721396
0	670	33.5	0.046137234721396
0	672	33.6	0.046137234721396
0	673	33.606450496	0.046137234721396
0	674	33.7	0.046137234721396
0	676	33.8	0.046137234721396
0	678	33.9	0.046137234721396
0	680	34	0.046137234721396
0	682	34.1	0.046137234721396
0	683	34.141647778	0.046137234721396
0	684	34.2	0.046137234721396
0	686	34.3	0.046137234721396
0	688	34.4	0.045675862374182
0	688	34.4	0.045675862374182
0	690	34.5	0.045675862374182
0	692	34.6	0.045675862374182
0	693	34.637970034	0.045675862374182
0	694	34.7	0.045675862374182
0	696	34.8	0.045675862374182
0	698	34.9	0.045675862374182
0	700	35	0.045675862374182
0	701	35.093270497	0.045675862374182
0	702	35.1	0.045675862374182
0	704	35.2	0.045675862374182
0	706	35.3	0.045675862374182
0	707	35.384483338	0.045675862374182
0	708	35.4	0.045675862374182
0	710	35.5	0.045675862374182
0	712	35.6	0.045675862374182
0	713	35.615532469	0.045675862374182
0	714	35.7	0.04521910375044
0	714	35.7	0.04521910375044
0	716	35.8	0.04521910375044
0	717	35.880555877	0.04521910375044
0	718	35.9	0.04521910375044
0	720	36	0.04521910375044
0	722	36.1	0.04521910375044
0	723	36.163011946	0.04521910375044
0	724	36.2	0.04521910375044
0	726	36.3	0.04521910375044
0	728	36.4	0.04521910375044
0	729	36.441563548	0.04521910375044
0	730	36.5	0.04521910375044
0	732	36.6	0.04521910375044
0	733	36.663548266	0.04521910375044
0	734	36.7	0.04521910375044
0	736	36.8	0.04521910375044
0	738	36.9	0.04521910375044
0	739	36.961922512	0.044766912712936
0	739	36.961922512	0.044766912712936
0	740	37	0.044766912712936
0	742	37.1	0.044766912712936
0	744	37.2	0.044766912712936
0	746	37.3	0.044766912712936
0	748	37.4	0.044766912712936
0	749	37.418117836	0.044766912712936
0	750	37.5	0.044766912712936
0	752	37.6	0.044766912712936
0	754	37.7	0.044766912712936
0	756	37.8	0.044766912712936
0	758	37.9	0.044766912712936
0	759	37.93193275	0.044766912712936
0	760	38	0.044766912712936
0	762	38.1	0.044766912712936
0	764	38.2	0.044766912712936
0	766	38.3	0.044766912712936
0	767	38.369133883	0.044319243585806
0	767	38.369133883	0.044319243585806
0	768	38.4	0.044319243585806
0	770	38.5	0.044319243585806
0	772	38.6	0.044319243585806
0	774	38.7	0.044319243585806
0	776	38.8	0.044319243585806
0	777	38.892338383	0.044319243585806
0	778	38.9	0.044319243585806
0	780	39	0.044319243585806
0	782	39.1	0.044319243585806
0	784	39.2	0.044319243585806
0	786	39.3	0.044319243585806
0	787	39.379384297	0.044319243585806
0	788	39.4	0.044319243585806
0	790	39.5	0.044319243585806
0	792	39.6	0.044319243585806
0	794	39.7	0.044319243585806
0	795	39.792693751	0.043876051149948
0	795	39.792693751	0.043876051149948
0	796	39.8	0.043876051149948
0	798	39.9	0.043876051149948
0	800	40	0.043876051149948
0	802	40.1	0.043876051149948
0	804	40.2	0.043876051149948
0	805	40.221405415	0.043876051149948
0	806	40.3	0.043876051149948
0	808	40.4	0.043876051149948
0	810	40.5	0.043876051149948
0	812	40.6	0.043876051149948
0	814	40.7	0.043876051149948
0	816	40.8	0.043876051149948
0	817	40.833152233	0.043876051149948
0	818	40.9	0.043876051149948
0	820	41	0.043876051149948
0	822	41.1	0.043876051149948
0	824	41.2	0.043437290638449
0	824	41.2	0.043437290638449
0	826	41.3	0.043437290638449
0	828	41.4	0.043437290638449
0	830	41.5	0.043437290638449
0	831	41.581726051	0.043437290638449
0	832	41.6	0.043437290638449
0	834	41.7	0.043437290638449
0	836	41.8	0.043437290638449
0	838	41.9	0.043437290638449
0	840	42	0.043437290638449
0	842	42.1	0.043437290638449
0	843	42.133938961	0.043437290638449
0	844	42.2	0.043437290638449
0	846	42.3	0.043437290638449
0	848	42.4	0.043437290638449
0	850	42.5	0.043437290638449
0	852	42.6	0.043437290638449
0	854	42.7	0.043002917732064
0	854	42.7	0.043002917732064
0	855	42.753156334	0.043002917732064
0	856	42.8	0.043002917732064
0	858	42.9	0.043002917732064
0	860	43	0.043002917732064
0	862	43.1	0.043002917732064
0	864	43.2	0.043002917732064
0	866	43.3	0.043002917732064
0	868	43.4	0.043002917732064
0	869	43.402312765	0.043002917732064
0	870	43.5	0.043002917732064
0	872	43.6	0.043002917732064
0	873	43.693177813	0.043002917732064
0	874	43.7	0.043002917732064
0	876	43.8	0.043002917732064
0	878	43.9	0.043002917732064
0	879	43.984817434	0.043002917732064
0	880	44	0.042572888554744
0	880	44	0.042572888554744
0	882	44.1	0.042572888554744
0	884	44.2	0.042572888554744
0	886	44.3	0.042572888554744
0	888	44.4	0.042572888554744
0	889	44.483321227	0.042572888554744
0	890	44.5	0.042572888554744
0	892	44.6	0.042572888554744
0	894	44.7	0.042572888554744
0	896	44.8	0.042572888554744
0	898	44.9	0.042572888554744
0	900	45	0.042572888554744
0	901	45.02271973	0.042572888554744
0	902	45.1	0.042572888554744
0	904	45.2	0.042572888554744
0	906	45.3	0.042572888554744
0	908	45.4	0.042572888554744
0	909	45.436210495	0.042147159669196
0	909	45.436210495	0.042147159669196
0	910	45.5	0.042147159669196
0	912	45.6	0.042147159669196
0	914	45.7	0.042147159669196
0	916	45.8	0.042147159669196
0	918	45.9	0.042147159669196
0	919	45.911041027	0.042147159669196
0	920	46	0.042147159669196
0	922	46.1	0.042147159669196
0	923	46.153471996	0.042147159669196
0	924	46.2	0.042147159669196
0	926	46.3	0.042147159669196
0	928	46.4	0.042147159669196
0	929	46.42891915	0.042147159669196
0	930	46.5	0.042147159669196
0	932	46.6	0.042147159669196
0	933	46.662510574	0.042147159669196
0	934	46.7	0.041725688072504
0	934	46.7	0.041725688072504
0	936	46.8	0.041725688072504
0	938	46.9	0.041725688072504
0	939	46.94402359	0.041725688072504
0	941	47	0.041725688072504
0	943	47.1	0.041725688072504
0	945	47.2	0.041725688072504
0	947	47.3	0.041725688072504
0	949	47.4	0.041725688072504
0	950	47.455533139	0.041725688072504
0	951	47.5	0.041725688072504
0	953	47.6	0.041725688072504
0	955	47.7	0.041725688072504
0	957	47.8	0.041725688072504
0	959	47.9	0.041725688072504
0	961	48	0.041725688072504
0	962	48.071434639	0.041725688072504
0	963	48.1	0.041725688072504
0	965	48.2	0.041725688072504
0	967	48.3	0.041725688072504
0	969	48.4	0.041725688072504
0	971	48.5	0.041725688072504
0	973	48.6	0.041725688072504
0	974	48.61191616	0.041725688072504
0	975	48.7	0.041725688072504
0	977	48.8	0.041725688072504
0	979	48.9	0.041725688072504
0	981	49	0.041725688072504
0	982	49.045345585	0.041725688072504
0	983	49.1	0.041725688072504
0	985	49.2	0.041725688072504
0	987	49.3	0.041725688072504
0	988	49.326629128	0.041725688072504
0	989	49.4	0.041725688072504
0	991	49.5	0.041725688072504
0	993	49.6	0.041725688072504
0	994	49.601623183	0.041725688072504
0	995	49.7	0.041725688072504
0	997	49.8	0.041725688072504
0	999	49.9	0.041725688072504
0	1001	50	0.041725688072504
0	1002	50.023276336	0.041725688072504
0	1003	50.1	0.041725688072504
0	1005	50.2	0.041725688072504
0	1006	50.288830903	0.041725688072504
0	1007	50.3	0.041725688072504
0	1009	50.4	0.041725688072504
0	1011	50.5	0.041725688072504
0	1013	50.6	0.041725688072504
0	1016	50.7	0.041725688072504
0	1018	50.8	0.041308431191779
0	1018	50.8	0.041308431191779
0	1020	50.9	0.041308431191779
0	1020	50.909222854	0.041308431191779
0	1022	51	0.041308431191779
0	1024	51.1	0.041308431191779
0	1026	51.2	0.041308431191779
0	1028	51.3	0.041308431191779
0	1030	51.4	0.041308431191779
0	1030	51.420484864	0.041308431191779
0	1032	51.5	0.041308431191779
0	1034	51.6	0.041308431191779
0	1036	51.7	0.041308431191779
0	1038	51.8	0.041308431191779
0	1038	51.883851991	0.041308431191779
0	1040	51.9	0.041308431191779
0	1042	52	0.041308431191779
0	1044	52.1	0.041308431191779
0	1046	52.2	0.040895346879862
0	1046	52.2	0.040895346879862
0	1048	52.3	0.040895346879862
0	1050	52.4	0.040895346879862
0	1050	52.482259741	0.040895346879862
0	1052	52.5	0.040895346879862
0	1054	52.6	0.040895346879862
0	1056	52.7	0.040895346879862
0	1058	52.8	0.040895346879862
0	1060	52.9	0.040895346879862
0	1062	53	0.040895346879862
0	1062	53.030079112	0.040895346879862
0	1064	53.1	0.040895346879862
0	1066	53.2	0.040895346879862
0	1068	53.3	0.040895346879862
0	1070	53.4	0.040895346879862
0	1071	53.491190041	0.040895346879862
0	1072	53.5	0.040895346879862
0	1074	53.6	0.040486393411063
0	1074	53.6	0.040486393411063
0	1076	53.7	0.040486393411063
0	1078	53.8	0.040486393411063
0	1080	53.9	0.040486393411063
0	1080	53.954335777	0.040486393411063
0	1082	54	0.040486393411063
0	1084	54.1	0.040486393411063
0	1086	54.2	0.040486393411063
0	1088	54.3	0.040486393411063
0	1090	54.4	0.040486393411063
0	1090	54.427157554	0.040486393411063
0	1092	54.5	0.040486393411063
0	1094	54.6	0.040486393411063
0	1096	54.7	0.040486393411063
0	1098	54.8	0.040486393411063
0	1100	54.9	0.040486393411063
0	1100	54.938194393	0.040486393411063
0	1102	55	0.040081529476952
0	1102	55	0.040081529476952
0	1104	55.1	0.040081529476952
0	1106	55.2	0.040081529476952
0	1108	55.3	0.040081529476952
0	1109	55.387882702	0.040081529476952
0	1110	55.4	0.040081529476952
0	1112	55.5	0.040081529476952
0	1114	55.6	0.040081529476952
0	1116	55.7	0.040081529476952
0	1117	55.791920203	0.040081529476952
0	1118	55.8	0.040081529476952
0	1120	55.9	0.040081529476952
0	1122	56	0.040081529476952
0	1124	56.1	0.040081529476952
0	1126	56.2	0.040081529476952
0	1129	56.3	0.040081529476952
0	1132	56.4	0.039680714182183
0	1132	56.4	0.039680714182183
0	1133	56.481455794	0.039680714182183
0	1135	56.5	0.039680714182183
0	1137	56.6	0.039680714182183
0	1139	56.7	0.039680714182183
0	1140	56.769634267061	0.039680714182183
0	1142	56.869634267061	0.039680714182183
0	1144	56.969634267061	0.039680714182183
0	1146	57.069634267061	0.039680714182183
0	1147	57.114514921	0.039680714182183
0	1148	57.169634267061	0.039680714182183
0	1150	57.269634267061	0.039680714182183
0	1152	57.369634267061	0.039680714182183
0	1154	57.469634267061	0.039680714182183
0	1156	57.569634267061	0.039680714182183
0	1158	57.669634267061	0.039680714182183
0	1159	57.72427876	0.039680714182183
0	1160	57.769634267061	0.039283907040361
0	1160	57.769634267061	0.039283907040361
0	1162	57.869634267061	0.039283907040361
0	1164	57.969634267061	0.039283907040361
0	1166	58.069634267061	0.039283907040361
0	1168	58.169634267061	0.039283907040361
0	1169	58.192310551	0.039283907040361
0	1170	58.269634267061	0.039283907040361
0	1172	58.369634267061	0.039283907040361
0	1173	58.462750732	0.039283907040361
0	1174	58.469634267061	0.039283907040361
0	1176	58.569634267061	0.039283907040361
0	1178	58.669634267061	0.039283907040361
0	1180	58.769634267061	0.039283907040361
0	1182	58.869634267061	0.039283907040361
0	1182	58.883921377	0.039283907040361
0	1184	58.969634267061	0.039283907040361
0	1186	59.069634267061	0.039283907040361
0	1188	59.169634267061	0.038891067969957
0	1188	59.169634267061	0.038891067969957
0	1188	59.181619825	0.038891067969957
0	1190	59.269634267061	0.038891067969957
0	1192	59.369634267061	0.038891067969957
0	1193	59.461459753	0.038891067969957
0	1194	59.469634267061	0.038891067969957
0	1196	59.569634267061	0.038891067969957
0	1198	59.669634267061	0.038891067969957
0	1200	59.769634267061	0.038891067969957
0	1202	59.869634267061	0.038891067969957
0	1204	59.885682236611	0.038891067969957
0	1204	59.903848375	0.038963732523513
0	1205	59.912915244122	0.039
0	1206	59.969634267061	0.039226876091756
0	1208	60.037915244122	0.0395
0	1209	60.069634267061	0.039626876091756
0	1210	60.132172375	0.039877028523512
0	1211	60.162915244122	0.04
0	1212	60.169634267061	0.040026876091756
0	1214	60.269634267061	0.040022607330838
0	1214	60.269634267061	0.040022607330838
0	1216	60.287915244122	0.0405
0	1217	60.369634267061	0.040826876091756
0	1219	60.412915244122	0.041
0	1219	60.414287593	0.041005489395512
0	1220	60.469634267061	0.041226876091756
0	1222	60.537915244122	0.0415
0	1223	60.569634267061	0.041626876091756
0	1225	60.662915244122	0.042
0	1226	60.669634267061	0.042026876091756
0	1228	60.769634267061	0.042426876091756
0	1230	60.787915244122	0.0425
0	1230	60.821238925	0.042633294723512
0	1231	60.869634267061	0.042826876091756
0	1233	60.912915244122	0.043
0	1234	60.969634267061	0.043226876091756
0	1236	61.037915244122	0.0435
0	1237	61.069634267061	0.043626876091756
0	1238	61.093574869	0.043722638499512
0	1239	61.162915244122	0.044
0	1240	61.169634267061	0.044026876091756
0	1242	61.269634267061	0.043982607330838
0	1242	61.269634267061	0.043982607330838
0	1244	61.287915244122	0.0445
0	1245	61.369634267061	0.044826876091756
0	1247	61.412915244122	0.045
0	1248	61.469634267061	0.045226876091756
0	1248	61.481081839	0.045272666379512
0	1250	61.537915244122	0.0455
0	1251	61.569634267061	0.045626876091756
0	1253	61.662915244122	0.046
0	1254	61.669634267061	0.046026876091756
0	1256	61.769634267061	0.046426876091756
0	1256	61.778571772	0.046462626111512
0	1258	61.787915244122	0.0465
0	1259	61.869634267061	0.046826876091756
0	1261	61.912915244122	0.047
0	1262	61.969634267061	0.047226876091756
0	1264	62.037915244122	0.0475
0	1265	62.069634267061	0.047626876091756
0	1267	62.162915244122	0.048
0	1268	62.169634267061	0.048026876091756
0	1269	62.236017838	0.048292410375512
0	1270	62.269634267061	0.047942607330838
0	1270	62.269634267061	0.047942607330838
0	1272	62.287915244122	0.0485
0	1273	62.369634267061	0.048826876091756
0	1275	62.412915244122	0.049
0	1276	62.469634267061	0.049226876091756
0	1278	62.537915244122	0.0495
0	1279	62.569634267061	0.049626876091756
0	1281	62.662915244122	0.05
0	1281	62.667042739	0.05
0	1282	62.669634267061	0.05
0	1284	62.769634267061	0.05
0	1286	62.869634267061	0.05
0	1288	62.969634267061	0.05
0	1289	63.06937429	0.05
0	1290	63.069634267061	0.05
0	1292	63.169634267061	0.05
0	1294	63.269634267061	0.05
0	1296	63.369634267061	0.05
0	1298	63.469634267061	0.05
0	1300	63.569634267061	0.0495
0	1300	63.569634267061	0.0495
0	1300	63.583079971	0.049553782815756
0	1302	63.669634267061	0.0499
0	1304	63.769634267061	0.05
0	1306	63.869634267061	0.05
0	1308	63.969634267061	0.05
0	1310	64.069634267061	0.05
0	1311	64.140321085	0.05
0	1312	64.169634267061	0.05
0	1314	64.269634267061	0.05
0	1316	64.369634267061	0.05
0	1318	64.469634267061	0.05
0	1320	64.569634267061	0.05
0	1321	64.665830863	0.05
0	1322	64.669634267061	0.05
0	1324	64.769634267061	0.05
0	1326	64.869634267061	0.05
0	1328	64.969634267061	0.0495
0	1328	64.969634267061	0.0495
0	1330	65.069634267061	0.0499
0	1330	65.08368955	0.049956221131756
0	1332	65.169634267061	0.05
0	1334	65.269634267061	0.05
0	1336	65.369634267061	0.05
0	1338	65.469634267061	0.05
0	1340	65.569634267061	0.05
0	1341	65.643400447	0.05
0	1342	65.669634267061	0.05
0	1344	65.769634267061	0.05
0	1346	65.869634267061	0.05
0	1347	65.928548917	0.05
0	1348	65.969634267061	0.05
0	1350	66.069634267061	0.05
0	1352	66.169634267061	0.05
0	1353	66.222120979	0.05
0	1354	66.269634267061	0.0495
0	1354	66.269634267061	0.0495
0	1356	66.369634267061	0.0499
0	1358	66.469634267061	0.05
0	1360	66.569634267061	0.05
0	1362	66.669634267061	0.05
0	1363	66.738100525	0.05
0	1364	66.769634267061	0.05
0	1366	66.869634267061	0.05
0	1368	66.969634267061	0.05
0	1369	66.980165164	0.05
0	1371	67.069634267061	0.05
0	1373	67.169634267061	0.05
0	1375	67.269634267061	0.05
0	1377	67.369634267061	0.05
0	1378	67.398562876	0.05
0	1379	67.469634267061	0.05
0	1381	67.569634267061	0.05
0	1383	67.669634267061	0.05
0	1385	67.769634267061	0.05
0	1386	67.812435622	0.05
0	1387	67.869634267061	0.05
0	1389	67.969634267061	0.05
0	1391	68.069634267061	0.05
0	1392	68.097696421	0.05
0	1393	68.169634267061	0.05
0	1395	68.269634267061	0.05
0	1396	68.332713862	0.05
0	1397	68.369634267061	0.05
0	1399	68.469634267061	0.05
0	1401	68.569634267061	0.05
0	1403	68.669634267061	0.05
0	1405	68.769634267061	0.05
0	1406	68.827587658	0.05
0	1407	68.869634267061	0.05
0	1409	68.969634267061	0.05
0	1411	69.069634267061	0.05
0	1413	69.169634267061	0.05
0	1415	69.269634267061	0.05
0	1416	69.318550186	0.05
0	1417	69.369634267061	0.05
0	1419	69.469634267061	0.05
0	1421	69.569634267061	0.05
0	1423	69.669634267061	0.05
0	1424	69.741042928	0.05
0	1425	69.769634267061	0.05
0	1427	69.869634267061	0.05
0	1429	69.969634267061	0.05
0	1431	70.069634267061	0.05
0	1433	70.169634267061	0.05
0	1434	70.1868763	0.05
0	1435	70.269634267061	0.05
0	1437	70.369634267061	0.05
0	1439	70.469634267061	0.05
0	1441	70.569634267061	0.05
0	1443	70.669634267061	0.05
0	1443	70.67687719	0.05
0	1445	70.769634267061	0.05
0	1447	70.869634267061	0.05
0	1449	70.969634267061	0.05
0	1451	71.069634267061	0.05
0	1452	71.146367296	0.05
0	1453	71.169634267061	0.05
0	1455	71.269634267061	0.05
0	1457	71.369634267061	0.05
0	1459	71.469634267061	0.05
0	1461	71.569634267061	0.05
0	1461	71.584049611	0.05
0	1463	71.669634267061	0.05
0	1465	71.769634267061	0.05
0	1466	71.867384188	0.05
0	1467	71.869634267061	0.05
0	1469	71.969634267061	0.05
0	1471	72.069634267061	0.05
0	1472	72.145291873	0.05
0	1473	72.169634267061	0.05
0	1475	72.269634267061	0.05
0	1477	72.369634267061	0.05
0	1479	72.469634267061	0.05
0	1481	72.569634267061	0.05
0	1482	72.604277869	0.05
0	1483	72.669634267061	0.05
0	1485	72.769634267061	0.05
0	1487	72.869634267061	0.05
0	1489	72.969634267061	0.05
0	1490	73.039870237	0.05
0	1491	73.069634267061	0.05
0	1493	73.169634267061	0.05
0	1495	73.269634267061	0.05
0	1497	73.369634267061	0.05
0	1499	73.469634267061	0.05
0	1500	73.554915529	0.05
0	1501	73.569634267061	0.05
0	1503	73.669634267061	0.05
0	1505	73.769634267061	0.05
0	1506	73.819455553	0.05
0	1507	73.869634267061	0.05
0	1509	73.969634267061	0.05
0	1511	74.069634267061	0.05
0	1512	74.115443896	0.05
0	1513	74.169634267061	0.05
0	1515	74.269634267061	0.05
0	1517	74.369634267061	0.05
0	1519	74.469634267061	0.05
0	1521	74.569634267061	0.05
0	1522	74.647338997	0.05
0	1523	74.669634267061	0.05
0	1525	74.769634267061	0.05
0	1527	74.869634267061	0.05
0	1529	74.969634267061	0.05
0	1530	75.053486578	0.05
0	1531	75.069634267061	0.05
0	1533	75.169634267061	0.05
0	1535	75.269634267061	0.05
0	1537	75.369634267061	0.05
0	1539	75.469634267061	0.05
0	1540	75.495789451	0.05
0	1541	75.569634267061	0.05
0	1543	75.669634267061	0.05
0	1545	75.769634267061	0.05
0	1547	75.869634267061	0.05
0	1548	75.914558542	0.05
0	1549	75.969634267061	0.05
0	1551	76.069634267061	0.05
0	1553	76.169634267061	0.05
0	1554	76.200814675	0.05
0	1555	76.269634267061	0.05
0	1557	76.369634267061	0.05
0	1559	76.469634267061	0.05
0	1561	76.569634267061	0.05
0	1563	76.669634267061	0.05
0	1564	76.732704913	0.05
0	1565	76.769634267061	0.05
0	1567	76.869634267061	0.05
0	1569	76.969634267061	0.05
0	1571	77.069634267061	0.05
0	1573	77.169634267061	0.05
0	1575	77.269634267061	0.05
0	1576	77.323718602	0.05
0	1577	77.369634267061	0.05
0	1579	77.469634267061	0.05
0	1581	77.569634267061	0.05
0	1583	77.669634267061	0.05
0	1585	77.769634267061	0.05
0	1587	77.869634267061	0.05
0	1587	77.874659239	0.05
0	1589	77.969634267061	0.05
0	1591	78.069634267061	0.05
0	1592	78.165372052	0.05
0	1593	78.169634267061	0.05
0	1595	78.269634267061	0.05
0	1597	78.369634267061	0.05
0	1599	78.469634267061	0.05
0	1601	78.569634267061	0.05
0	1602	78.621099628	0.05
0	1603	78.669634267061	0.05
0	1605	78.769634267061	0.05
0	1607	78.869634267061	0.05
0	1609	78.969634267061	0.05
0	1611	79.069634267061	0.05
0	1612	79.12423414	0.05
0	1613	79.169634267061	0.05
0	1615	79.269634267061	0.05
0	1617	79.369634267061	0.05
0	1619	79.469634267061	0.05
0	1621	79.569634267061	0.05
0	1622	79.614512617	0.05
0	1623	79.669634267061	0.05
0	1625	79.769634267061	0.05
0	1627	79.869634267061	0.05
0	1629	79.969634267061	0.05
0	1630	80.049674161	0.05
0	1631	80.069634267061	0.05
0	1633	80.169634267061	0.05
0	1635	80.269634267061	0.05
0	1637	80.369634267061	0.05
0	1639	80.469634267061	0.05
0	1641	80.569634267061	0.05
0	1642	80.630159128	0.05
0	1643	80.669634267061	0.05
0	1645	80.769634267061	0.05
0	1647	80.869634267061	0.05
0	1649	80.969634267061	0.05
0	1650	81.06155284	0.05
0	1651	81.069634267061	0.05
0	1653	81.169634267061	0.05
0	1655	81.269634267061	0.05
0	1656	81.295614895	0.05
0	1657	81.369634267061	0.05
0	1659	81.469634267061	0.05
0	1661	81.569634267061	0.05
0	1662	81.590422135	0.05
0	1663	81.669634267061	0.05
0	1665	81.769634267061	0.05
0	1667	81.869634267061	0.05
0	1667	81.87621241	0.05
0	1669	81.969634267061	0.05
0	1671	82.069634267061	0.05
0	1673	82.169634267061	0.05
0	1675	82.269634267061	0.05
0	1677	82.369634267061	0.05
0	1678	82.388486968	0.05
0	1679	82.469634267061	0.05
0	1681	82.569634267061	0.05
0	1682	82.64981068	0.05
0	1683	82.669634267061	0.05
0	1685	82.769634267061	0.05
0	1687	82.869634267061	0.05
0	1688	82.943696602	0.05
0	1689	82.969634267061	0.05
0	1691	83.069634267061	0.05
0	1692	83.148865165	0.05
0	1693	83.169634267061	0.05
0	1695	83.269634267061	0.05
0	1697	83.369634267061	0.05
0	1699	83.469634267061	0.05
0	1701	83.569634267061	0.05
0	1702	83.607938707	0.05
0	1703	83.669634267061	0.05
0	1705	83.769634267061	0.05
0	1706	83.85628315	0.05
0	1707	83.869634267061	0.05
0	1709	83.969634267061	0.05
0	1711	84.069634267061	0.05
0	1713	84.169634267061	0.05
0	1715	84.269634267061	0.05
0	1717	84.369634267061	0.05
0	1718	84.392574856	0.05
0	1719	84.469634267061	0.05
0	1721	84.569634267061	0.05
0	1723	84.669634267061	0.05
0	1724	84.686169271	0.05
0	1725	84.769634267061	0.05
0	1727	84.869634267061	0.05
0	1729	84.969634267061	0.05
0	1731	85.069634267061	0.05
0	1733	85.169634267061	0.05
0	1734	85.193333392	0.05
0	1735	85.269634267061	0.05
0	1737	85.369634267061	0.05
0	1739	85.469634267061	0.05
0	1741	85.569634267061	0.05
0	1742	85.612456867	0.05
0	1743	85.669634267061	0.05
0	1745	85.769634267061	0.05
0	1746	85.840015933	0.05
0	1747	85.869634267061	0.05
0	1749	85.969634267061	0.05
0	1751	86.069634267061	0.05
0	1752	86.140499449	0.05
0	1753	86.169634267061	0.05
0	1755	86.269634267061	0.05
0	1757	86.369634267061	0.05
0	1759	86.469634267061	0.05
0	1760	86.521683286	0.05
0	1761	86.569634267061	0.05
0	1763	86.669634267061	0.05
0	1765	86.769634267061	0.05
0	1766	86.81787484	0.05
0	1767	86.869634267061	0.05
0	1769	86.969634267061	0.05
0	1771	87.069634267061	0.05
0	1772	87.101134915	0.05
0	1773	87.169634267061	0.05
0	1775	87.269634267061	0.05
0	1777	87.369634267061	0.05
0	1779	87.469634267061	0.05
0	1780	87.566336839	0.05
0	1781	87.569634267061	0.05
0	1783	87.669634267061	0.05
0	1785	87.769634267061	0.05
0	1787	87.869634267061	0.05
0	1789	87.969634267061	0.05
0	1791	88.069634267061	0.05
0	1791	88.073650822	0.05
0	1793	88.169634267061	0.05
0	1795	88.269634267061	0.05
0	1797	88.369634267061	0.05
0	1799	88.469634267061	0.05
0	1801	88.569634267061	0.05
0	1802	88.641287044	0.05
0	1803	88.669634267061	0.05
0	1805	88.769634267061	0.05
0	1807	88.869634267061	0.05
0	1809	88.969634267061	0.05
0	1811	89.069634267061	0.05
0	1811	89.08245136	0.05
0	1813	89.169634267061	0.05
0	1815	89.269634267061	0.05
0	1817	89.369634267061	0.05
0	1819	89.469634267061	0.05
0	1820	89.553131503	0.05
0	1821	89.569634267061	0.05
0	1823	89.669634267061	0.05
0	1825	89.769634267061	0.05
0	1826	89.814240073	0.05
0	1827	89.869634267061	0.05
0	1829	89.969634267061	0.05
0	1831	90.069634267061	0.05
0	1833	90.169634267061	0.05
0	1835	90.269634267061	0.05
0	1836	90.352880083	0.05
0	1837	90.369634267061	0.05
0	1839	90.469634267061	0.05
0	1841	90.569634267061	0.05
0	1843	90.669634267061	0.05
0	1845	90.769634267061	0.05
0	1847	90.869634267061	0.05
0	1849	90.969634267061	0.05
0	1850	91.051261729	0.05
0	1851	91.069634267061	0.05
0	1853	91.169634267061	0.05
0	1855	91.269634267061	0.05
0	1857	91.369634267061	0.05
0	1859	91.469634267061	0.05
0	1861	91.535579158822	0.05
0	1863	91.635579158822	0.05
0	1863	91.660451329	0.05
0	1865	91.735579158822	0.05
0	1867	91.835579158822	0.05
0	1869	91.935579158822	0.05
0	1871	92.035579158822	0.05
0	1873	92.135579158822	0.05
0	1874	92.225430064	0.05
0	1875	92.235579158822	0.05
0	1877	92.335579158822	0.05
0	1879	92.435579158822	0.05
0	1881	92.535579158822	0.05
0	1883	92.635579158822	0.05
0	1883	92.636430637	0.05
0	1885	92.735579158822	0.05
0	1887	92.835579158822	0.05
0	1888	92.928452338	0.05
0	1889	92.935579158822	0.05
0	1891	93.035579158822	0.05
0	1893	93.135579158822	0.05
0	1895	93.235579158822	0.05
0	1897	93.335579158822	0.05
0	1898	93.423703444	0.05
0	1899	93.435579158822	0.05
0	1901	93.535579158822	0.05
0	1903	93.635579158822	0.05
0	1905	93.735579158822	0.05
0	1907	93.835579158822	0.05
0	1909	93.935579158822	0.05
0	1910	94.02045172	0.05
0	1911	94.035579158822	0.05
0	1913	94.135579158822	0.05
0	1915	94.235579158822	0.05
0	1917	94.335579158822	0.05
0	1919	94.435579158822	0.05
0	1921	94.535579158822	0.05
0	1922	94.586641597	0.05
0	1923	94.635579158822	0.05
0	1925	94.735579158822	0.05
0	1927	94.835579158822	0.05
0	1929	94.935579158822	0.05
0	1930	95.017424764	0.05
0	1931	95.035579158822	0.05
0	1933	95.135579158822	0.05
0	1935	95.235579158822	0.05
0	1937	95.335579158822	0.05
0	1939	95.435579158822	0.05
0	1939	95.464242097	0.05
0	1941	95.535579158822	0.05
0	1943	95.635579158822	0.05
0	1945	95.735579158822	0.05
0	1949	95.835579158822	0.05
0	1952	95.935579158822	0.05
0	1952	95.957893501	0.05
0	1955	96.035579158822	0.05
0	1957	96.135579158822	0.05
0	1960	96.235579158822	0.0495
0	1960	96.235579158822	0.0495
0	1963	96.335579158822	0.0499
0	1965	96.42386677	0.05
0	1966	96.435579158822	0.05
0	1969	96.535579158822	0.05
0	1971	96.635579158822	0.05
0	1974	96.735579158822	0.05
0	1977	96.835579158822	0.05
0	1977	96.879962638	0.05
0	1980	96.935579158822	0.05
0	1983	97.035579158822	0.05
0	1985	97.135579158822	0.05
0	1986	97.141909403583	0.05
0	1989	97.235579158822	0.05
0	1992	97.335579158822	0.05
0	1992	97.383760231	0.05
0	1995	97.435579158822	0.05
0	1998	97.535579158822	0.05
0	2000	97.635579158822	0.05
0	2003	97.735579158822	0.05
0	2006	97.835579158822	0.05
0	2006	97.867558519	0.05
0	2009	97.935579158822	0.05
0	2012	98.035579158822	0.05
0	2014	98.098332034123	0.05
0	2015	98.135579158822	0.05
0	2018	98.235579158822	0.05
0	2020	98.335579158822	0.0495
0	2020	98.335579158822	0.0495
0	2022	98.435579158822	0.0499
0	2023	98.531809666	0.05
0	2024	98.535579158822	0.05
0	2026	98.635579158822	0.05
0	2028	98.735579158822	0.05
0	2030	98.835579158822	0.05
0	2032	98.935579158822	0.05
0	2034	99.035579158822	0.05
0	2036	99.135579158822	0.05
0	2036	99.141768589	0.05
0	2038	99.235579158822	0.05
0	2040	99.335579158822	0.05
0	2042	99.435579158822	0.05
0	2044	99.535579158822	0.05
0	2046	99.635579158822	0.05
0	2048	99.735579158822	0.05
0	2049	99.79256923	0.0495
0	2049	99.79256923	0.0495
0	2050	99.835579158822	0.049672039715288
0	2052	99.935579158822	0.05
0	2054	100.035579158822	0.05
0	2056	100.135579158822	0.05
0	2058	100.235579158822	0.05
0	2060	100.335579158822	0.05
0	2061	100.396870093	0.05
0	2062	100.435579158822	0.05
0	2064	100.535579158822	0.05
0	2066	100.635579158822	0.05
0	2068	100.735579158822	0.05
0	2070	100.835579158822	0.05
0	2072	100.935579158822	0.05
0	2073	100.966557809493	0.05
0	2074	101.00499523	0.05
0	2075	101.066557809493	0.05
0	2077	101.166557809493	0.05
0	2079	101.266557809493	0.05
0	2081	101.366557809493	0.05
0	2083	101.466557809493	0.05
0	2085	101.566557809493	0.05
0	2086	101.65914331	0.05
0	2087	101.666557809493	0.05
0	2089	101.766557809493	0.05
0	2091	101.866557809493	0.05
0	2093	101.966557809493	0.05
0	2095	102.066557809493	0.05
0	2097	102.166557809493	0.05
0	2098	102.265489555	0.05
0	2099	102.266557809493	0.05
0	2101	102.366557809493	0.05
0	2103	102.466557809493	0.05
0	2105	102.566557809493	0.05
0	2107	102.666557809493	0.05
0	2108	102.748434595	0.05
0	2109	102.766557809493	0.05
0	2111	102.866557809493	0.05
0	2113	102.966557809493	0.05
0	2115	103.066557809493	0.05
0	2116	103.156023895	0.05
0	2117	103.166557809493	0.05
0	2119	103.266557809493	0.05
0	2121	103.366557809493	0.05
0	2123	103.466557809493	0.05
0	2125	103.566557809493	0.05
0	2126	103.590662974	0.05
0	2127	103.666557809493	0.05
0	2129	103.766557809493	0.05
0	2131	103.866557809493	0.05
0	2133	103.966557809493	0.05
0	2135	104.066557809493	0.05
0	2136	104.097796483	0.05
0	2137	104.166557809493	0.05
0	2139	104.266557809493	0.05
0	2141	104.366557809493	0.05
0	2143	104.466557809493	0.05
0	2145	104.566557809493	0.05
0	2147	104.666557809493	0.05
0	2147	104.684156881	0.05
0	2149	104.766557809493	0.05
0	2151	104.866557809493	0.05
0	2153	104.966557809493	0.05
0	2155	105.066557809493	0.05
0	2157	105.166557809493	0.05
0	2158	105.196822477	0.05
0	2159	105.266557809493	0.05
0	2161	105.366557809493	0.05
0	2163	105.466557809493	0.05
0	2165	105.566557809493	0.05
0	2167	105.666557809493	0.05
0	2168	105.694915003	0.05
0	2169	105.766557809493	0.05
0	2171	105.866557809493	0.05
0	2173	105.966557809493	0.05
0	2175	106.066557809493	0.05
0	2177	106.166557809493	0.05
0	2179	106.266557809493	0.05
0	2179	106.278335044	0.05
0	2181	106.366557809493	0.05
0	2183	106.466557809493	0.05
0	2185	106.566557809493	0.05
0	2187	106.666557809493	0.05
0	2189	106.766557809493	0.05
0	2191	106.866557809493	0.05
0	2191	106.88392945	0.05
0	2193	106.966557809493	0.05
0	2195	107.066557809493	0.05
0	2197	107.166557809493	0.05
0	2199	107.266557809493	0.05
0	2201	107.366557809493	0.05
0	2202	107.43936868	0.05
0	2203	107.466557809493	0.05
0	2205	107.566557809493	0.05
0	2207	107.666557809493	0.05
0	2209	107.766557809493	0.05
0	2211	107.866557809493	0.05
0	2213	107.966557809493	0.05
0	2214	108.023428729	0.05
0	2215	108.066557809493	0.05
0	2217	108.166557809493	0.05
0	2219	108.266557809493	0.05
0	2221	108.366557809493	0.05
0	2223	108.466557809493	0.05
0	2225	108.566557809493	0.05
0	2227	108.666557809493	0.05
0	2227	108.672845017	0.05
0	2229	108.766557809493	0.05
0	2231	108.866557809493	0.05
0	2233	108.966557809493	0.05
0	2235	109.066557809493	0.05
0	2237	109.166557809493	0.05
0	2238	109.21520869	0.05
0	2239	109.266557809493	0.05
0	2241	109.366557809493	0.05
0	2243	109.456028907198	0.05
0	2245	109.556028907198	0.05
0	2247	109.656028907198	0.05
0	2248	109.729225186	0.05
0	2249	109.756028907198	0.05
0	2251	109.856028907198	0.05
0	2253	109.956028907198	0.05
0	2255	110.056028907198	0.05
0	2257	110.156028907198	0.05
0	2259	110.256028907198	0.05
0	2260	110.345749309	0.05
0	2261	110.356028907198	0.05
0	2264	110.456028907198	0.05
0	2266	110.556028907198	0.05
0	2268	110.656028907198	0.05
0	2270	110.756028907198	0.05
0	2272	110.856028907198	0.05
0	2273	110.939767756	0.05
0	2274	110.956028907198	0.05
0	2276	111.056028907198	0.05
0	2278	111.156028907198	0.05
0	2280	111.256028907198	0.0495
0	2280	111.256028907198	0.0495
0	2282	111.356028907198	0.0499
0	2284	111.456028907198	0.05
0	2286	111.556028907198	0.05
0	2288	111.656028907198	0.05
0	2288	111.68568499	0.05
0	2290	111.756028907198	0.05
0	2292	111.856028907198	0.05
0	2294	111.956028907198	0.05
0	2296	112.056028907198	0.05
0	2298	112.156028907198	0.05
0	2298	112.175866192	0.05
0	2300	112.256028907198	0.05
0	2302	112.356028907198	0.05
0	2304	112.456028907198	0.05
0	2306	112.556028907198	0.05
0	2308	112.656028907198	0.05
0	2309	112.698830347	0.0495
0	2309	112.698830347	0.0495
0	2310	112.756028907198	0.049728794240792
0	2312	112.856028907198	0.05
0	2314	112.956028907198	0.05
0	2316	113.056028907198	0.05
0	2318	113.156028907198	0.05
0	2318	113.166511492	0.05
0	2320	113.256028907198	0.05
0	2322	113.356028907198	0.05
0	2324	113.456028907198	0.05
0	2326	113.556028907198	0.05
0	2327	113.615856298	0.05
0	2328	113.656028907198	0.05
0	2330	113.756028907198	0.05
0	2332	113.856028907198	0.05
0	2334	113.956028907198	0.05
0	2336	114.056028907198	0.05
0	2336	114.061943062	0.05
0	2338	114.156028907198	0.05
0	2340	114.256028907198	0.05
0	2342	114.356028907198	0.05
0	2344	114.456028907198	0.05
0	2345	114.512795953	0.05
0	2346	114.556028907198	0.05
0	2348	114.656028907198	0.05
0	2350	114.756028907198	0.05
0	2351	114.809591269	0.05
0	2352	114.856028907198	0.05
0	2354	114.956028907198	0.05
0	2356	115.056028907198	0.05
0	2358	115.156028907198	0.05
0	2360	115.256028907198	0.05
0	2361	115.305416461	0.05
0	2362	115.356028907198	0.05
0	2364	115.456028907198	0.0495
0	2364	115.456028907198	0.0495
0	2366	115.556028907198	0.0499
0	2368	115.656028907198	0.05
0	2370	115.756028907198	0.05
0	2370	115.75841077	0.05
0	2372	115.856028907198	0.05
0	2374	115.956028907198	0.05
0	2374	115.98201556	0.05
0	2376	116.056028907198	0.05
0	2378	116.156028907198	0.05
0	2380	116.256028907198	0.05
0	2382	116.356028907198	0.05
0	2384	116.456028907198	0.05
0	2384	116.464704688	0.05
0	2386	116.556028907198	0.05
0	2388	116.656028907198	0.05
0	2390	116.756028907198	0.05
0	2392	116.856028907198	0.0495
0	2392	116.856028907198	0.0495
0	2393	116.932689331	0.049806641695208
0	2394	116.956028907198	0.0499
0	2396	117.056028907198	0.05
0	2398	117.156028907198	0.05
0	2400	117.256028907198	0.05
0	2402	117.356028907198	0.05
0	2403	117.427493239	0.05
0	2404	117.456028907198	0.05
0	2406	117.556028907198	0.05
0	2408	117.656028907198	0.05
0	2410	117.756028907198	0.05
0	2412	117.856028907198	0.05
0	2414	117.956028907198	0.05
0	2415	118.003834114	0.05
0	2416	118.056028907198	0.05
0	2418	118.156028907198	0.05
0	2419	118.243065325	0.0495
0	2419	118.243065325	0.0495
0	2420	118.256028907198	0.049551854328792
0	2422	118.356028907198	0.049951854328792
0	2424	118.456028907198	0.05
0	2426	118.556028907198	0.05
0	2428	118.656028907198	0.05
0	2429	118.73365747	0.05
0	2430	118.756028907198	0.05
0	2432	118.856028907198	0.05
0	2434	118.956028907198	0.05
0	2436	119.056028907198	0.05
0	2438	119.156028907198	0.05
0	2440	119.256028907198	0.05
0	2442	119.321486298373	0.05
0	2443	119.378433577	0.05
0	2444	119.421486298373	0.05
0	2446	119.521486298373	0.05
0	2448	119.621486298373	0.0495
0	2448	119.621486298373	0.0495
0	2450	119.721486298373	0.0499
0	2452	119.821486298373	0.05
0	2454	119.921486298373	0.05
0	2455	120.011358037	0.05
0	2456	120.021486298373	0.05
0	2458	120.121486298373	0.05
0	2460	120.221486298373	0.05
0	2462	120.321486298373	0.05
0	2464	120.421486298373	0.05
0	2466	120.521486298373	0.05
0	2467	120.598661131	0.05
0	2468	120.621486298373	0.05
0	2470	120.721486298373	0.05
0	2472	120.821486298373	0.05
0	2474	120.921486298373	0.05
0	2476	121.021486298373	0.05
0	2477	121.085379298	0.0495
0	2477	121.085379298	0.0495
0	2478	121.121486298373	0.049644428001492
0	2480	121.221486298373	0.05
0	2482	121.321486298373	0.05
0	2484	121.421486298373	0.05
0	2486	121.521486298373	0.05
0	2487	121.599447796	0.05
0	2488	121.621486298373	0.05
0	2490	121.721486298373	0.05
0	2492	121.821486298373	0.05
0	2494	121.921486298373	0.05
0	2496	122.021486298373	0.05
0	2497	122.088978235	0.05
0	2498	122.121486298373	0.05
0	2500	122.221486298373	0.05
0	2502	122.321486298373	0.05
0	2504	122.421486298373	0.05
0	2506	122.521486298373	0.0495
0	2506	122.521486298373	0.0495
0	2506	122.533213864	0.049546910262508
0	2508	122.621486298373	0.0499
0	2510	122.721486298373	0.05
0	2512	122.821486298373	0.05
0	2514	122.921486298373	0.05
0	2516	123.021486298373	0.05
0	2516	123.027258304	0.05
0	2518	123.121486298373	0.05
0	2520	123.221486298373	0.05
0	2522	123.321486298373	0.05
0	2524	123.421486298373	0.05
0	2525	123.512507749	0.05
0	2526	123.521486298373	0.05
0	2528	123.621486298373	0.05
0	2530	123.721486298373	0.05
0	2532	123.821486298373	0.05
0	2534	123.921486298373	0.0495
0	2534	123.921486298373	0.0495
0	2534	123.964349746	0.049671453790508
0	2536	124.021486298373	0.0499
0	2538	124.08304926049	0.05
0	2539	124.121486298373	0.05
0	2541	124.221486298373	0.05
0	2543	124.321486298373	0.05
0	2545	124.421486298373	0.05
0	2546	124.4899792	0.05
0	2547	124.521486298373	0.05
0	2549	124.621486298373	0.05
0	2551	124.721486298373	0.05
0	2553	124.821486298373	0.05
0	2555	124.921486298373	0.05
0	2557	125.021486298373	0.05
0	2559	125.121486298373	0.05
0	2560	125.173413685	0.05
0	2561	125.221486298373	0.05
0	2563	125.321486298373	0.05
0	2565	125.421486298373	0.05
0	2567	125.521486298373	0.05
0	2569	125.621486298373	0.05
0	2571	125.721486298373	0.05
0	2571	125.740399144	0.05
0	2573	125.821486298373	0.05
0	2575	125.921486298373	0.05
0	2577	126.021486298373	0.05
0	2579	126.121486298373	0.05
0	2581	126.221486298373	0.05
0	2581	126.22714297	0.05
0	2583	126.321486298373	0.05
0	2585	126.421486298373	0.05
0	2587	126.521486298373	0.05
0	2589	126.621486298373	0.05
0	2589	126.650259055	0.05
0	2591	126.721486298373	0.05
0	2593	126.821486298373	0.05
0	2595	126.921486298373	0.05
0	2595	126.926445778	0.05
0	2597	127.021486298373	0.05
0	2599	127.121486298373	0.05
0	2601	127.221486298373	0.05
0	2603	127.321486298373	0.05
0	2605	127.421486298373	0.05
0	2605	127.437389317	0.05
0	2607	127.466526727476	0.05
0	2609	127.566526727476	0.05
0	2611	127.666526727476	0.05
0	2613	127.766526727476	0.05
0	2615	127.866526727476	0.05
0	2617	127.966526727476	0.05
0	2619	128.066526727476	0.05
0	2621	128.166526727476	0.05
0	2623	128.266526727476	0.05
0	2623	128.282891311	0.05
0	2625	128.366526727476	0.05
0	2627	128.466526727476	0.05
0	2629	128.566526727476	0.05
0	2631	128.666526727476	0.05
0	2631	128.676414247	0.05
0	2633	128.766526727476	0.05
0	2635	128.866526727476	0.05
0	2635	128.938736392	0.05
0	2637	128.966526727476	0.05
0	2639	129.066526727476	0.05
0	2641	129.166526727476	0.05
0	2643	129.266526727476	0.05
0	2645	129.366526727476	0.05
0	2645	129.390521929	0.05
0	2647	129.466526727476	0.05
0	2649	129.566526727476	0.05
0	2649	129.627358717	0.05
0	2651	129.666526727476	0.05
0	2653	129.766526727476	0.05
0	2655	129.866526727476	0.05
0	2657	129.966526727476	0.05
0	2657	130.061603632	0.05
0	2659	130.066526727476	0.05
0	2661	130.166526727476	0.05
0	2663	130.266526727476	0.05
0	2665	130.366526727476	0.05
0	2667	130.466526727476	0.05
0	2667	130.517315191	0.05
0	2669	130.566526727476	0.05
0	2671	130.666526727476	0.05
0	2673	130.766526727476	0.05
0	2675	130.866526727476	0.05
0	2677	130.966526727476	0.05
0	2677	131.052945634	0.05
0	2679	131.066526727476	0.05
0	2681	131.166526727476	0.05
0	2683	131.266526727476	0.05
0	2685	131.366526727476	0.05
0	2687	131.466526727476	0.05
0	2687	131.550419398	0.05
0	2689	131.566526727476	0.05
0	2691	131.666526727476	0.05
0	2693	131.766526727476	0.05
0	2695	131.866526727476	0.05
0	2697	131.966526727476	0.05
0	2699	132.066526727476	0.05
0	2699	132.145683121	0.05
0	2701	132.166526727476	0.05
0	2703	132.266526727476	0.05
0	2705	132.366526727476	0.05
0	2707	132.466526727476	0.05
0	2709	132.566526727476	0.05
0	2709	132.633629725	0.05
0	2711	132.663415778647	0.05
0	2713	132.763415778647	0.05
0	2715	132.863415778647	0.05
0	2717	132.963415778647	0.05
0	2717	133.058409349	0.05
0	2719	133.063415778647	0.05
0	2721	133.163415778647	0.05
0	2723	133.263415778647	0.05
0	2723	133.320010003	0.05
0	2725	133.363415778647	0.05
0	2727	133.463415778647	0.05
0	2729	133.563415778647	0.05
0	2731	133.663415778647	0.05
0	2733	133.763415778647	0.05
0	2733	133.824285523	0.05
0	2735	133.863415778647	0.05
0	2737	133.963415778647	0.05
0	2739	134.063415778647	0.05
0	2739	134.082374899	0.05
0	2741	134.163415778647	0.05
0	2743	134.263415778647	0.05
0	2745	134.363415778647	0.05
0	2747	134.463415778647	0.05
0	2749	134.563415778647	0.05
0	2749	134.580475003	0.05
0	2751	134.663415778647	0.05
0	2753	134.763415778647	0.05
0	2755	134.863415778647	0.05
0	2757	134.963415778647	0.05
0	2757	135.019316824	0.0495
0	2757	135.019316824	0.0495
0	2759	135.063415778647	0.0495
0	2761	135.163415778647	0.0495
0	2763	135.263415778647	0.0495
0	2765	135.363415778647	0.0495
0	2767	135.463415778647	0.0495
0	2767	135.503925589	0.0495
0	2769	135.563415778647	0.0495
0	2771	135.663415778647	0.0495
0	2773	135.763415778647	0.0495
0	2775	135.863415778647	0.0495
0	2775	135.93095554	0.0495
0	2777	135.963415778647	0.0495
0	2779	136.063415778647	0.0495
0	2781	136.163415778647	0.0495
0	2781	136.196501416	0.0495
0	2783	136.263415778647	0.0495
0	2785	136.363415778647	0.0495
0	2787	136.463415778647	0.0495
0	2789	136.563415778647	0.0495
0	2790	136.608387592	0.0495
0	2791	136.663415778647	0.0495
0	2793	136.763415778647	0.0495
0	2795	136.863415778647	0.0495
0	2797	136.963415778647	0.0495
0	2800	137.063415778647	0.0495
0	2800	137.063950189	0.0495
0	2802	137.163415778647	0.0495
0	2804	137.263415778647	0.0495
0	2805	137.290029892	0.0495
0	2806	137.363415778647	0.0495
0	2808	137.463415778647	0.0495
0	2810	137.563415778647	0.0495
0	2812	137.663415778647	0.049005
0	2812	137.663415778647	0.049005
0	2814	137.763415778647	0.049005
0	2815	137.803981375	0.049005
0	2816	137.863415778647	0.049005
0	2818	137.963415778647	0.049005
0	2820	138.063415778647	0.049005
0	2821	138.074669647	0.049005
0	2822	138.163415778647	0.049005
0	2824	138.263415778647	0.049005
0	2826	138.363415778647	0.049005
0	2828	138.463415778647	0.049005
0	2830	138.563415778647	0.049005
0	2831	138.606091072	0.049005
0	2832	138.663415778647	0.049005
0	2834	138.763415778647	0.049005
0	2836	138.863415778647	0.049005
0	2838	138.963415778647	0.049005
0	2840	139.063415778647	0.04851495
0	2840	139.063415778647	0.04851495
0	2842	139.163415778647	0.04851495
0	2844	139.263415778647	0.04851495
0	2845	139.292980456	0.04851495
0	2846	139.363415778647	0.04851495
0	2848	139.463415778647	0.04851495
0	2850	139.563415778647	0.04851495
0	2852	139.663415778647	0.04851495
0	2854	139.763415778647	0.04851495
0	2856	139.863415778647	0.04851495
0	2857	139.89523981	0.04851495
0	2858	139.963415778647	0.04851495
0	2860	140.063415778647	0.04851495
0	2862	140.163415778647	0.04851495
0	2864	140.263415778647	0.04851495
0	2867	140.363415778647	0.04851495
0	2868	140.455789252	0.04851495
0	2869	140.463415778647	0.04851495
0	2871	140.563415778647	0.04851495
0	2873	140.663415778647	0.04851495
0	2875	140.763415778647	0.04851495
0	2877	140.863415778647	0.04851495
0	2878	140.927027971	0.04851495
0	2879	140.963415778647	0.04851495
0	2881	141.063415778647	0.04851495
0	2883	141.163415778647	0.04851495
0	2884	141.214339864	0.04851495
0	2885	141.263415778647	0.04851495
0	2887	141.363415778647	0.04851495
0	2889	141.463415778647	0.04851495
0	2891	141.563415778647	0.04851495
0	2892	141.633498766	0.04851495
0	2893	141.663415778647	0.04851495
0	2895	141.763415778647	0.04851495
0	2897	141.863415778647	0.04851495
0	2899	141.963415778647	0.04851495
0	2900	142.030203331	0.04851495
0	2901	142.063415778647	0.04851495
0	2903	142.163415778647	0.04851495
0	2905	142.263415778647	0.04851495
0	2905	142.281251779	0.04851495
0	2907	142.363415778647	0.04851495
0	2909	142.463415778647	0.04851495
0	2911	142.563415778647	0.04851495
0	2913	142.663415778647	0.04851495
0	2915	142.763415778647	0.04851495
0	2915	142.771706749	0.04851495
0	2917	142.863415778647	0.04851495
0	2919	142.963415778647	0.04851495
0	2921	143.063415778647	0.04851495
0	2924	143.163415778647	0.0480298005
0	2924	143.163415778647	0.0480298005
0	2927	143.263415778647	0.0480298005
0	2928	143.323640518	0.0480298005
0	2930	143.363415778647	0.0480298005
0	2932	143.463415778647	0.0480298005
0	2934	143.563415778647	0.0480298005
0	2936	143.663415778647	0.0480298005
0	2937	143.748834499	0.0480298005
0	2938	143.763415778647	0.0480298005
0	2940	143.863415778647	0.0480298005
0	2942	143.963415778647	0.0480298005
0	2944	144.063415778647	0.0480298005
0	2946	144.163415778647	0.0480298005
0	2946	144.197984098	0.0480298005
0	2948	144.263415778647	0.0480298005
0	2950	144.363415778647	0.0480298005
0	2952	144.463415778647	0.047549502495
0	2952	144.463415778647	0.047549502495
0	2952	144.495616903	0.047549502495
0	2954	144.563415778647	0.047549502495
0	2956	144.663415778647	0.047549502495
0	2958	144.763415778647	0.047549502495
0	2960	144.863415778647	0.047549502495
0	2962	144.963415778647	0.047549502495
0	2963	145.024741372	0.047549502495
0	2964	145.063415778647	0.047549502495
0	2966	145.163415778647	0.047549502495
0	2968	145.263415778647	0.047549502495
0	2970	145.363415778647	0.047549502495
0	2972	145.463415778647	0.047549502495
0	2972	145.469014486	0.047549502495
0	2974	145.563415778647	0.047549502495
0	2976	145.663415778647	0.047549502495
0	2978	145.763415778647	0.047549502495
0	2980	145.863415778647	0.04707400747005
0	2980	145.863415778647	0.04707400747005
0	2981	145.963009825	0.04707400747005
0	2982	145.963415778647	0.04707400747005
0	2984	146.063415778647	0.04707400747005
0	2986	146.163415778647	0.04707400747005
0	2988	146.263415778647	0.04707400747005
0	2990	146.363415778647	0.04707400747005
0	2990	146.368572838	0.04707400747005
0	2992	146.463415778647	0.04707400747005
0	2994	146.563415778647	0.04707400747005
0	2996	146.663415778647	0.04707400747005
0	2996	146.665348699	0.04707400747005
0	2998	146.763415778647	0.04707400747005
0	3000	146.863415778647	0.04707400747005
0	3002	146.963415778647	0.04707400747005
0	3004	147.063415778647	0.04707400747005
0	3004	147.093253009	0.04707400747005
0	3006	147.163415778647	0.04660326739535
0	3006	147.163415778647	0.04660326739535
0	3008	147.263415778647	0.04660326739535
0	3010	147.363415778647	0.04660326739535
0	3012	147.463415778647	0.04660326739535
0	3014	147.563415778647	0.04660326739535
0	3014	147.585882472	0.04660326739535
0	3016	147.663415778647	0.04660326739535
0	3018	147.763415778647	0.04660326739535
0	3020	147.863415778647	0.04660326739535
0	3022	147.963415778647	0.04660326739535
0	3024	148.063415778647	0.04660326739535
0	3025	148.123605808	0.04660326739535
0	3025	148.163415778647	0.04660326739535
1	0	0	0.004
1	461	23.08057828677	0
1	1204	59.885682236611	0.004
1	1986	97.141909403583	0
1	2014	98.098332034123	0.004
1	2538	124.08304926049	0
2	0	0	0.05
2	0	0.1	0.05
2	2	0.161374432	0.05
2	4	0.2	0.05
2	6	0.3	0.05
2	6	0.38172655	0.05
2	8	0.4	0.05
2	10	0.5	0.05
2	12	0.6	0.05
2	12	0.676474552	0.05
2	14	0.7	0.05
2	16	0.8	0.05
2	18	0.9	0.05
2	20	1	0.05
2	22	1.1	0.05
2	24	1.2	0.05
2	24	1.221458221	0.0495
2	24	1.221458221	0.0495
2	26	1.3	0.049814167116
2	28	1.4	0.05
2	28	1.490897245	0.05
2	30	1.5	0.05
2	32	1.6	0.05
2	34	1.7	0.05
2	34	1.756759165	0.05
2	36	1.8	0.05
2	38	1.9	0.05
2	38	1.971506866	0.05
2	40	2	0.05
2	42	2.1	0.05
2	44	2.2	0.05
2	44	2.223147337	0.05
2	46	2.3	0.05
2	48	2.4	0.05
2	50	2.5	0.0495
2	50	2.5	0.0495
2	52	2.6	0.0499
2	52	2.680359205	0.05
2	54	2.7	0.05
2	56	2.8	0.05
2	58	2.9	0.05
2	60	3	0.05
2	62	3.1	0.05
2	62	3.124484917	0.05
2	64	3.2	0.05
2	66	3.3	0.05
2	68	3.4	0.05
2	70	3.5	0.05
2	72	3.6	0.05
2	72	3.612255829	0.05
2	74	3.7	0.05
2	76	3.8	0.05
2	76	3.88855159	0.0495
2	76	3.88855159	0.0495
2	78	3.9	0.04954579364
2	80	4	0.04994579364
2	82	4.1	0.05
2	84	4.2	0.05
2	86	4.3	0.05
2	86	4.360228225	0.05
2	88	4.4	0.05
2	90	4.5	0.05
2	92	4.6	0.05
2	94	4.7	0.05
2	94	4.760820205	0.05
2	96	4.8	0.05
2	98	4.9	0.05
2	100	5	0.05
2	100	5.043699664	0.05
2	102	5.1	0.05
2	104	5.2	0.0495
2	104	5.2	0.0495
2	106	5.3	0.0499
2	108	5.4	0.05
2	110	5.5	0.05
2	110	5.505571201	0.05
2	112	5.6	0.05
2	114	5.7	0.05
2	116	5.8	0.05
2	118	5.9	0.05
2	118	5.987325097	0.05
2	120	6	0.05
2	122	6.1	0.05
2	124	6.2	0.05
2	126	6.3	0.05
2	128	6.4	0.05
2	128	6.48554467	0.05
2	130	6.5	0.05
2	132	6.6	0.0495
2	132	6.6	0.0495
2	134	6.7	0.0499
2	136	6.8	0.05
2	138	6.9	0.05
2	140	7	0.05
2	140	7.057524169	0.05
2	142	7.1	0.05
2	144	7.2	0.05
2	146	7.3	0.05
2	148	7.4	0.05
2	150	7.5	0.05
2	152	7.6	0.05
2	154	7.7	0.05
2	154	7.70577505	0.05
2	156	7.8	0.05
2	158	7.9	0.05
2	160	8	0.05
2	162	8.1	0.0495
2	162	8.1	0.0495
2	164	8.2	0.0499
2	166	8.3	0.05
2	166	8.327277007	0.05
2	168	8.4	0.05
2	170	8.5	0.05
2	172	8.6	0.05
2	174	8.7	0.05
2	176	8.8	0.05
2	178	8.9	0.05
2	178	8.951057791	0.05
2	180	9	0.05
2	182	9.1	0.05
2	184	9.2	0.05
2	186	9.3	0.05
2	188	9.4	0.05
2	190	9.5	0.05
2	190	9.504053002	0.0495
2	190	9.504053002	0.0495
2	192	9.6	0.049883787992
2	194	9.7	0.05
2	196	9.8	0.05
2	198	9.9	0.05
2	200	10	0.05
2	200	10.032825874	0.05
2	202	10.1	0.05
2	204	10.2	0.05
2	206	10.3	0.05
2	208	10.4	0.05
2	210	10.5	0.05
2	210	10.56571027	0.05
2	212	10.6	0.05
2	214	10.7	0.05
2	216	10.8	0.05
2	218	10.9	0.05
2	220	11	0.0495
2	220	11	0.0495
2	222	11.1	0.0499
2	224	11.2	0.05
2	224	11.246080678	0.05
2	226	11.3	0.05
2	228	11.4	0.05
2	230	11.5	0.05
2	232	11.6	0.05
2	234	11.7	0.05
2	236	11.8	0.05
2	236	11.869130443	0.05
2	238	11.9	0.05
2	240	12	0.05
2	242	12.1	0.05
2	242	12.152367499	0.05
2	244	12.2	0.05
2	246	12.3	0.05
2	248	12.4	0.0495
2	248	12.4	0.0495
2	250	12.5	0.0499
2	250	12.596079571	0.05
2	252	12.6	0.05
2	254	12.7	0.05
2	256	12.8	0.05
2	258	12.9	0.05
2	260	13	0.05
2	260	13.036007827	0.05
2	262	13.1	0.05
2	264	13.2	0.05
2	266	13.3	0.05
2	266	13.315773142	0.05
2	268	13.4	0.05
2	270	13.5	0.05
2	272	13.6	0.05
2	274	13.7	0.05
2	276	13.8	0.0495
2	276	13.8	0.0495
2	276	13.844654194	0.049678616776
2	278	13.9	0.0499
2	280	14	0.05
2	282	14.1	0.05
2	284	14.2	0.05
2	286	14.3	0.05
2	286	14.370476278	0.05
2	288	14.4	0.05
2	290	14.5	0.05
2	292	14.6	0.05
2	292	14.66350303	0.05
2	294	14.7	0.05
2	296	14.8	0.05
2	298	14.9	0.05
2	298	14.954902	0.05
2	300	15	0.05
2	302	15.1	0.0495
2	302	15.1	0.0495
2	304	15.2	0.0499
2	306	15.3	0.05
2	306	15.377923753	0.05
2	308	15.4	0.05
2	310	15.5	0.05
2	312	15.6	0.05
2	314	15.7	0.05
2	314	15.782891311	0.05
2	316	15.8	0.05
2	318	15.9	0.05
2	320	16	0.05
2	322	16.1	0.05
2	322	16.185876157	0.05
2	324	16.2	0.05
2	326	16.3	0.05
2	328	16.4	0.05
2	330	16.5	0.0495
2	330	16.5	0.0495
2	332	16.6	0.0499
2	332	16.668657403	0.05
2	334	16.7	0.05
2	336	16.8	0.05
2	338	16.9	0.05
2	338	16.951400341	0.05
2	340	17	0.05
2	342	17.1	0.05
2	342	17.178999097	0.05
2	344	17.2	0.05
2	346	17.3	0.05
2	348	17.4	0.05
2	350	17.5	0.05
2	350	17.599491469	0.05
2	352	17.6	0.05
2	354	17.7	0.05
2	356	17.8	0.0495
2	356	17.8	0.0495
2	358	17.9	0.0499
2	360	18	0.05
2	360	18.042868249	0.05
2	362	18.1	0.05
2	364	18.2	0.05
2	366	18.3	0.05
2	368	18.4	0.05
2	368	18.492954208	0.05
2	370	18.5	0.05
2	372	18.6	0.05
2	374	18.7	0.05
2	376	18.8	0.05
2	378	18.9	0.05
2	378	18.951530578	0.05
2	380	19	0.05
2	382	19.1	0.05
2	384	19.2	0.0495
2	384	19.2	0.0495
2	384	19.213282276	0.049553129104
2	386	19.3	0.0499
2	388	19.4	0.05
2	388	19.487729596	0.05
2	390	19.5	0.05
2	392	19.6	0.05
2	394	19.7	0.05
2	396	19.8	0.05
2	398	19.9	0.05
2	398	19.954076689	0.05
2	400	20	0.05
2	402	20.1	0.05
2	404	20.2	0.05
2	406	20.3	0.05
2	408	20.4	0.05
2	408	20.423652688	0.05
2	410	20.5	0.0495
2	410	20.5	0.0495
2	412	20.6	0.0499
2	412	20.651552581	0.05
2	414	20.7	0.05
2	416	20.8	0.05
2	418	20.9	0.05
2	418	20.923747702	0.05
2	420	21	0.05
2	422	21.1	0.05
2	424	21.2	0.05
2	426	21.3	0.05
2	426	21.398423365	0.05
2	428	21.4	0.05
2	430	21.5	0.05
2	432	21.6	0.05
2	434	21.7	0.05
2	436	21.8	0.05
2	436	21.839210641	0.0495
2	436	21.839210641	0.0495
2	438	21.9	0.049743157436
2	440	22	0.05
2	442	22.1	0.05
2	444	22.2	0.05
2	444	22.257124924	0.05
2	446	22.3	0.05
2	448	22.4	0.05
2	450	22.5	0.05
2	450	22.538753137	0.05
2	452	22.6	0.05
2	454	22.7	0.05
2	456	22.8	0.05
2	458	22.9	0.05
2	460	23	0.05
2	460	23.071510324	0.05
2	463	23.1	0.05
2	465	23.2	0.05
2	467	23.3	0.05
2	469	23.4	0.05
2	471	23.5	0.05
2	473	23.6	0.05
2	473	23.693982319	0.05
2	475	23.7	0.05
2	477	23.8	0.05
2	479	23.9	0.05
2	481	24	0.05
2	483	24.1	0.05
2	483	24.185020909	0.05
2	485	24.2	0.05
2	487	24.3	0.05
2	489	24.4	0.05
2	491	24.5	0.05
2	493	24.6	0.05
2	493	24.679461343	0.05
2	495	24.7	0.05
2	497	24.8	0.05
2	499	24.9	0.05
2	499	24.933052999	0.05
2	501	25	0.05
2	503	25.1	0.05
2	505	25.2	0.05
2	507	25.3	0.05
2	507	25.368559297	0.05
2	509	25.4	0.05
2	511	25.5	0.05
2	513	25.6	0.05
2	513	25.618479889	0.05
2	515	25.7	0.05
2	517	25.8	0.05
2	519	25.9	0.05
2	521	26	0.05
2	521	26.031194686	0.05
2	523	26.1	0.05
2	525	26.2	0.05
2	527	26.3	0.05
2	529	26.4	0.05
2	529	26.489517349	0.05
2	531	26.5	0.05
2	533	26.6	0.05
2	535	26.7	0.05
2	537	26.8	0.05
2	539	26.9	0.05
2	539	26.932798279	0.05
2	541	27	0.05
2	543	27.1	0.05
2	545	27.2	0.05
2	545	27.23257393	0.05
2	547	27.3	0.05
2	549	27.4	0.05
2	551	27.5	0.05
2	551	27.52281832	0.05
2	553	27.6	0.05
2	555	27.7	0.05
2	557	27.8	0.05
2	559	27.9	0.05
2	559	27.96171781	0.05
2	561	28	0.05
2	563	28.1	0.05
2	565	28.2	0.05
2	567	28.3	0.05
2	567	28.397635549	0.05
2	569	28.4	0.05
2	571	28.5	0.05
2	573	28.6	0.05
2	575	28.7	0.05
2	577	28.8	0.05
2	577	28.884567601	0.05
2	579	28.9	0.05
2	581	29	0.05
2	583	29.1	0.05
2	585	29.2	0.05
2	587	29.3	0.05
2	587	29.333438242	0.05
2	589	29.4	0.05
2	591	29.5	0.05
2	593	29.6	0.05
2	595	29.7	0.05
2	597	29.8	0.05
2	597	29.84912254	0.05
2	599	29.9	0.05
2	601	30	0.05
2	603	30.1	0.05
2	605	30.2	0.05
2	607	30.3	0.05
2	609	30.4	0.05
2	609	30.41335162	0.05
2	611	30.5	0.05
2	613	30.6	0.05
2	615	30.7	0.05
2	617	30.8	0.05
2	619	30.9	0.05
2	621	31	0.05
2	621	31.015890853	0.05
2	623	31.1	0.05
2	625	31.2	0.05
2	627	31.3	0.05
2	629	31.4	0.05
2	631	31.5	0.05
2	631	31.536109285	0.05
2	633	31.6	0.05
2	635	31.7	0.05
2	637	31.8	0.05
2	639	31.9	0.05
2	641	32	0.05
2	641	32.094227713	0.05
2	643	32.1	0.05
2	645	32.2	0.05
2	647	32.3	0.05
2	649	32.4	0.05
2	651	32.5	0.05
2	653	32.6	0.05
2	653	32.611956172	0.05
2	655	32.7	0.05
2	657	32.8	0.05
2	659	32.9	0.05
2	661	33	0.05
2	663	33.1	0.05
2	663	33.132239323	0.05
2	665	33.2	0.05
2	667	33.3	0.05
2	669	33.4	0.05
2	671	33.5	0.05
2	673	33.6	0.05
2	673	33.606450496	0.05
2	675	33.7	0.05
2	677	33.8	0.05
2	679	33.9	0.05
2	681	34	0.05
2	683	34.1	0.05
2	683	34.141647778	0.05
2	685	34.2	0.05
2	687	34.3	0.05
2	689	34.4	0.05
2	691	34.5	0.05
2	693	34.6	0.05
2	693	34.637970034	0.05
2	695	34.7	0.05
2	697	34.8	0.05
2	699	34.9	0.05
2	701	35	0.05
2	701	35.093270497	0.05
2	703	35.1	0.05
2	705	35.2	0.05
2	707	35.3	0.05
2	707	35.384483338	0.05
2	709	35.4	0.05
2	711	35.5	0.05
2	713	35.6	0.05
2	713	35.615532469	0.05
2	715	35.7	0.05
2	717	35.8	0.05
2	717	35.880555877	0.05
2	719	35.9	0.05
2	721	36	0.05
2	723	36.1	0.05
2	723	36.163011946	0.05
2	725	36.2	0.05
2	727	36.3	0.05
2	729	36.4	0.05
2	729	36.441563548	0.05
2	731	36.5	0.05
2	733	36.6	0.05
2	733	36.663548266	0.05
2	735	36.7	0.05
2	737	36.8	0.05
2	739	36.9	0.05
2	739	36.961922512	0.05
2	741	37	0.05
2	743	37.1	0.05
2	745	37.2	0.05
2	747	37.3	0.05
2	749	37.4	0.05
2	749	37.418117836	0.05
2	751	37.5	0.05
2	753	37.6	0.05
2	755	37.7	0.05
2	757	37.8	0.05
2	759	37.9	0.05
2	759	37.93193275	0.05
2	761	38	0.05
2	763	38.1	0.05
2	765	38.2	0.05
2	767	38.3	0.05
2	767	38.369133883	0.05
2	769	38.4	0.05
2	771	38.5	0.05
2	773	38.6	0.05
2	775	38.7	0.05
2	777	38.8	0.05
2	777	38.892338383	0.05
2	779	38.9	0.05
2	781	39	0.05
2	783	39.1	0.05
2	785	39.2	0.05
2	787	39.3	0.05
2	787	39.379384297	0.05
2	789	39.4	0.05
2	791	39.5	0.05
2	793	39.6	0.05
2	795	39.7	0.05
2	795	39.792693751	0.05
2	797	39.8	0.05
2	799	39.9	0.05
2	801	40	0.05
2	803	40.1	0.05
2	805	40.2	0.05
2	805	40.221405415	0.05
2	807	40.3	0.05
2	809	40.4	0.05
2	811	40.5	0.05
2	813	40.6	0.05
2	815	40.7	0.05
2	817	40.8	0.05
2	817	40.833152233	0.05
2	819	40.9	0.05
2	821	41	0.05
2	823	41.1	0.05
2	825	41.2	0.05
2	827	41.3	0.05
2	829	41.4	0.05
2	831	41.5	0.05
2	831	41.581726051	0.05
2	833	41.6	0.05
2	835	41.7	0.05
2	837	41.8	0.05
2	839	41.9	0.05
2	841	42	0.05
2	843	42.1	0.05
2	843	42.133938961	0.05
2	845	42.2	0.05
2	847	42.3	0.05
2	849	42.4	0.05
2	851	42.5	0.05
2	853	42.6	0.05
2	855	42.7	0.05
2	855	42.753156334	0.05
2	857	42.8	0.05
2	859	42.9	0.05
2	861	43	0.05
2	863	43.1	0.05
2	865	43.2	0.05
2	867	43.3	0.05
2	869	43.4	0.05
2	869	43.402312765	0.05
2	871	43.5	0.05
2	873	43.6	0.05
2	873	43.693177813	0.05
2	875	43.7	0.05
2	877	43.8	0.05
2	879	43.9	0.05
2	879	43.984817434	0.05
2	881	44	0.05
2	883	44.1	0.05
2	885	44.2	0.05
2	887	44.3	0.05
2	889	44.4	0.05
2	889	44.483321227	0.05
2	891	44.5	0.05
2	893	44.6	0.05
2	895	44.7	0.05
2	897	44.8	0.05
2	899	44.9	0.05
2	901	45	0.05
2	901	45.02271973	0.05
2	903	45.1	0.05
2	905	45.2	0.05
2	907	45.3	0.05
2	909	45.4	0.05
2	909	45.436210495	0.05
2	911	45.5	0.05
2	913	45.6	0.05
2	915	45.7	0.05
2	917	45.8	0.05
2	919	45.9	0.05
2	919	45.911041027	0.05
2	921	46	0.05
2	923	46.1	0.05
2	923	46.153471996	0.05
2	925	46.2	0.05
2	927	46.3	0.05
2	929	46.4	0.05
2	929	46.42891915	0.05
2	931	46.5	0.05
2	933	46.6	0.05
2	933	46.662510574	0.05
2	935	46.7	0.05
2	937	46.8	0.05
2	939	46.9	0.05
2	939	46.94402359	0.05
2	940	46.974101355068	0.05
2	942	47	0.05
2	944	47.1	0.05
2	946	47.2	0.05
2	948	47.3	0.05
2	950	47.4	0.05
2	950	47.455533139	0.05
2	952	47.5	0.05
2	954	47.6	0.05
2	956	47.7	0.05
2	958	47.8	0.05
2	960	47.9	0.05
2	962	48	0.05
2	962	48.071434639	0.0495
2	962	48.071434639	0.0495
2	964	48.1	0.0495
2	966	48.2	0.0495
2	968	48.3	0.0495
2	970	48.4	0.0495
2	972	48.5	0.0495
2	974	48.6	0.0495
2	974	48.61191616	0.0495
2	976	48.7	0.0495
2	978	48.8	0.0495
2	980	48.9	0.0495
2	982	49	0.0495
2	982	49.045345585	0.0495
2	984	49.1	0.0495
2	986	49.2	0.0495
2	988	49.3	0.0495
2	988	49.326629128	0.0495
2	990	49.4	0.049005
2	990	49.4	0.049005
2	992	49.5	0.049005
2	994	49.6	0.049005
2	994	49.601623183	0.049005
2	996	49.7	0.049005
2	998	49.8	0.049005
2	1000	49.9	0.049005
2	1002	50	0.049005
2	1002	50.023276336	0.049005
2	1004	50.1	0.049005
2	1006	50.2	0.049005
2	1006	50.288830903	0.049005
2	1008	50.3	0.049005
2	1010	50.4	0.049005
2	1012	50.5	0.049005
2	1014	50.6	0.049005
2	1015	50.684302222663	0.049005
2	1017	50.784302222663	0.049005
2	1019	50.884302222663	0.049005
2	1020	50.909222854	0.049005
2	1021	50.984302222663	0.049005
2	1023	51.084302222663	0.049005
2	1025	51.184302222663	0.049005
2	1027	51.284302222663	0.049005
2	1029	51.384302222663	0.049005
2	1030	51.420484864	0.049005
2	1031	51.484302222663	0.049005
2	1033	51.584302222663	0.049005
2	1035	51.684302222663	0.049005
2	1037	51.784302222663	0.049005
2	1038	51.883851991	0.049005
2	1039	51.884302222663	0.049005
2	1041	51.984302222663	0.049005
2	1043	52.084302222663	0.049005
2	1045	52.184302222663	0.049005
2	1047	52.284302222663	0.049005
2	1049	52.384302222663	0.049005
2	1050	52.482259741	0.049005
2	1051	52.484302222663	0.049005
2	1053	52.584302222663	0.049005
2	1055	52.684302222663	0.049005
2	1057	52.784302222663	0.049005
2	1059	52.884302222663	0.049005
2	1061	52.984302222663	0.049005
2	1062	53.030079112	0.049005
2	1063	53.084302222663	0.049005
2	1065	53.184302222663	0.049005
2	1067	53.284302222663	0.049005
2	1069	53.384302222663	0.049005
2	1071	53.484302222663	0.049005
2	1071	53.491190041	0.049005
2	1073	53.584302222663	0.049005
2	1075	53.684302222663	0.049005
2	1077	53.784302222663	0.049005
2	1079	53.884302222663	0.049005
2	1080	53.954335777	0.049005
2	1081	53.984302222663	0.049005
2	1083	54.084302222663	0.049005
2	1085	54.184302222663	0.049005
2	1087	54.284302222663	0.049005
2	1089	54.384302222663	0.049005
2	1090	54.427157554	0.049005
2	1091	54.484302222663	0.049005
2	1093	54.584302222663	0.049005
2	1095	54.684302222663	0.049005
2	1097	54.784302222663	0.049005
2	1099	54.884302222663	0.049005
2	1100	54.938194393	0.049005
2	1101	54.984302222663	0.049005
2	1103	55.084302222663	0.049005
2	1105	55.184302222663	0.049005
2	1107	55.284302222663	0.049005
2	1109	55.384302222663	0.049005
2	1109	55.387882702	0.049005
2	1111	55.484302222663	0.049005
2	1113	55.584302222663	0.049005
2	1115	55.684302222663	0.049005
2	1117	55.784302222663	0.049005
2	1117	55.791920203	0.049005
2	1119	55.884302222663	0.049005
2	1121	55.984302222663	0.049005
2	1123	56.084302222663	0.049005
2	1125	56.184302222663	0.049005
2	1127	56.223580848839	0.049005
2	1128	56.284302222663	0.049247885495296
2	1130	56.347330848839	0.0495
2	1131	56.384302222663	0.049647885495296
2	1133	56.472330848839	0.05
2	1133	56.481455794	0.05
2	1134	56.484302222663	0.05
2	1136	56.584302222663	0.05
2	1138	56.684302222663	0.05
2	1141	56.784302222663	0.05
2	1143	56.884302222663	0.05
2	1145	56.984302222663	0.05
2	1147	57.084302222663	0.05
2	1147	57.114514921	0.05
2	1149	57.184302222663	0.05
2	1151	57.284302222663	0.05
2	1153	57.384302222663	0.05
2	1155	57.484302222663	0.05
2	1157	57.584302222663	0.05
2	1159	57.684302222663	0.05
2	1159	57.72427876	0.05
2	1161	57.784302222663	0.05
2	1163	57.884302222663	0.05
2	1165	57.984302222663	0.05
2	1167	58.084302222663	0.05
2	1169	58.184302222663	0.05
2	1169	58.192310551	0.05
2	1171	58.284302222663	0.05
2	1173	58.384302222663	0.05
2	1173	58.462750732	0.05
2	1175	58.484302222663	0.05
2	1177	58.584302222663	0.05
2	1179	58.684302222663	0.05
2	1181	58.784302222663	0.05
2	1182	58.883921377	0.05
2	1183	58.884302222663	0.05
2	1185	58.984302222663	0.05
2	1187	59.084302222663	0.05
2	1188	59.181619825	0.05
2	1189	59.184302222663	0.05
2	1191	59.284302222663	0.05
2	1193	59.384302222663	0.05
2	1193	59.461459753	0.05
2	1195	59.484302222663	0.05
2	1197	59.584302222663	0.05
2	1199	59.684302222663	0.05
2	1201	59.784302222663	0.05
2	1203	59.884302222663	0.05
2	1204	59.903848375	0.05
2	1207	59.984302222663	0.05
2	1210	60.084302222663	0.05
2	1210	60.132172375	0.05
2	1213	60.184302222663	0.05
2	1215	60.284302222663	0.05
2	1218	60.384302222663	0.05
2	1219	60.414287593	0.05
2	1221	60.484302222663	0.05
2	1224	60.584302222663	0.05
2	1227	60.684302222663	0.05
2	1229	60.784302222663	0.05
2	1230	60.821238925	0.05
2	1232	60.884302222663	0.05
2	1235	60.984302222663	0.05
2	1238	61.084302222663	0.05
2	1238	61.093574869	0.05
2	1241	61.184302222663	0.05
2	1243	61.284302222663	0.05
2	1246	61.384302222663	0.05
2	1248	61.481081839	0.05
2	1249	61.484302222663	0.05
2	1252	61.584302222663	0.05
2	1255	61.684302222663	0.05
2	1256	61.778571772	0.05
2	1257	61.784302222663	0.05
2	1260	61.884302222663	0.05
2	1263	61.984302222663	0.05
2	1266	62.084302222663	0.05
2	1269	62.184302222663	0.05
2	1269	62.236017838	0.05
2	1271	62.284302222663	0.05
2	1274	62.384302222663	0.05
2	1277	62.484302222663	0.05
2	1280	62.584302222663	0.05
2	1281	62.667042739	0.05
2	1283	62.684302222663	0.05
2	1285	62.784302222663	0.05
2	1287	62.884302222663	0.05
2	1289	62.984302222663	0.05
2	1289	63.06937429	0.05
2	1291	63.084302222663	0.05
2	1293	63.184302222663	0.05
2	1295	63.284302222663	0.05
2	1297	63.384302222663	0.05
2	1299	63.484302222663	0.05
2	1300	63.583079971	0.05
2	1301	63.584302222663	0.05
2	1303	63.684302222663	0.05
2	1305	63.784302222663	0.05
2	1307	63.884302222663	0.05
2	1309	63.984302222663	0.05
2	1311	64.084302222663	0.05
2	1311	64.140321085	0.05
2	1313	64.184302222663	0.05
2	1315	64.284302222663	0.05
2	1317	64.384302222663	0.05
2	1319	64.484302222663	0.05
2	1321	64.584302222663	0.05
2	1321	64.665830863	0.05
2	1323	64.684302222663	0.05
2	1325	64.784302222663	0.05
2	1327	64.884302222663	0.05
2	1329	64.984302222663	0.05
2	1330	65.08368955	0.05
2	1331	65.084302222663	0.05
2	1333	65.184302222663	0.05
2	1335	65.284302222663	0.05
2	1337	65.384302222663	0.05
2	1339	65.484302222663	0.05
2	1341	65.584302222663	0.05
2	1341	65.643400447	0.05
2	1343	65.684302222663	0.05
2	1345	65.784302222663	0.05
2	1347	65.884302222663	0.05
2	1347	65.928548917	0.05
2	1349	65.984302222663	0.05
2	1351	66.084302222663	0.05
2	1353	66.184302222663	0.05
2	1353	66.222120979	0.05
2	1355	66.284302222663	0.05
2	1357	66.384302222663	0.05
2	1359	66.484302222663	0.05
2	1361	66.584302222663	0.05
2	1363	66.684302222663	0.05
2	1363	66.738100525	0.05
2	1365	66.784302222663	0.05
2	1367	66.884302222663	0.05
2	1369	66.971635917307	0.05
2	1369	66.980165164	0.05
2	1370	66.984302222663	0.05
2	1372	67.084302222663	0.05
2	1374	67.184302222663	0.05
2	1376	67.284302222663	0.05
2	1378	67.384302222663	0.05
2	1378	67.398562876	0.05
2	1380	67.484302222663	0.05
2	1382	67.584302222663	0.0495
2	1382	67.584302222663	0.0495
2	1384	67.684302222663	0.0495
2	1386	67.784302222663	0.0495
2	1386	67.812435622	0.0495
2	1388	67.884302222663	0.0495
2	1390	67.984302222663	0.0495
2	1392	68.084302222663	0.0495
2	1392	68.097696421	0.0495
2	1394	68.184302222663	0.0495
2	1396	68.284302222663	0.0495
2	1396	68.332713862	0.0495
2	1398	68.384302222663	0.0495
2	1400	68.484302222663	0.0495
2	1402	68.584302222663	0.0495
2	1404	68.684302222663	0.0495
2	1406	68.784302222663	0.0495
2	1406	68.827587658	0.0495
2	1408	68.884302222663	0.049005
2	1408	68.884302222663	0.049005
2	1410	68.984302222663	0.049005
2	1412	69.084302222663	0.049005
2	1414	69.184302222663	0.049005
2	1416	69.284302222663	0.049005
2	1416	69.318550186	0.049005
2	1418	69.384302222663	0.049005
2	1420	69.484302222663	0.049005
2	1422	69.584302222663	0.049005
2	1424	69.684302222663	0.049005
2	1424	69.741042928	0.049005
2	1426	69.784302222663	0.049005
2	1428	69.884302222663	0.049005
2	1430	69.984302222663	0.049005
2	1432	70.084302222663	0.049005
2	1434	70.184302222663	0.049005
2	1434	70.1868763	0.049005
2	1436	70.284302222663	0.04851495
2	1436	70.284302222663	0.04851495
2	1438	70.384302222663	0.04851495
2	1440	70.484302222663	0.04851495
2	1442	70.584302222663	0.04851495
2	1443	70.67687719	0.04851495
2	1444	70.684302222663	0.04851495
2	1446	70.784302222663	0.04851495
2	1448	70.884302222663	0.04851495
2	1450	70.984302222663	0.04851495
2	1452	71.084302222663	0.04851495
2	1452	71.146367296	0.04851495
2	1454	71.184302222663	0.04851495
2	1456	71.284302222663	0.04851495
2	1458	71.384302222663	0.04851495
2	1460	71.484302222663	0.04851495
2	1461	71.584049611	0.04851495
2	1462	71.584302222663	0.04851495
2	1464	71.684302222663	0.0480298005
2	1464	71.684302222663	0.0480298005
2	1466	71.784302222663	0.0480298005
2	1466	71.867384188	0.0480298005
2	1468	71.884302222663	0.0480298005
2	1470	71.984302222663	0.0480298005
2	1472	72.084302222663	0.0480298005
2	1472	72.145291873	0.0480298005
2	1474	72.184302222663	0.0480298005
2	1476	72.284302222663	0.0480298005
2	1478	72.384302222663	0.0480298005
2	1480	72.484302222663	0.0480298005
2	1482	72.584302222663	0.0480298005
2	1482	72.604277869	0.0480298005
2	1484	72.684302222663	0.0480298005
2	1486	72.784302222663	0.0480298005
2	1488	72.884302222663	0.0480298005
2	1490	72.984302222663	0.0480298005
2	1490	73.039870237	0.047549502495
2	1490	73.039870237	0.047549502495
2	1492	73.084302222663	0.047549502495
2	1494	73.184302222663	0.047549502495
2	1496	73.284302222663	0.047549502495
2	1498	73.384302222663	0.047549502495
2	1500	73.484302222663	0.047549502495
2	1500	73.554915529	0.047549502495
2	1502	73.584302222663	0.047549502495
2	1504	73.684302222663	0.047549502495
2	1506	73.784302222663	0.047549502495
2	1506	73.819455553	0.047549502495
2	1508	73.884302222663	0.047549502495
2	1510	73.984302222663	0.047549502495
2	1512	74.084302222663	0.047549502495
2	1512	74.115443896	0.047549502495
2	1514	74.184302222663	0.047549502495
2	1516	74.284302222663	0.047549502495
2	1518	74.384302222663	0.04707400747005
2	1518	74.384302222663	0.04707400747005
2	1520	74.484302222663	0.04707400747005
2	1522	74.584302222663	0.04707400747005
2	1522	74.647338997	0.04707400747005
2	1524	74.684302222663	0.04707400747005
2	1526	74.784302222663	0.04707400747005
2	1528	74.884302222663	0.04707400747005
2	1530	74.984302222663	0.04707400747005
2	1530	75.053486578	0.04707400747005
2	1532	75.084302222663	0.04707400747005
2	1534	75.184302222663	0.04707400747005
2	1536	75.284302222663	0.04707400747005
2	1538	75.384302222663	0.04707400747005
2	1540	75.484302222663	0.04707400747005
2	1540	75.495789451	0.04707400747005
2	1542	75.584302222663	0.04707400747005
2	1544	75.684302222663	0.04707400747005
2	1546	75.784302222663	0.04660326739535
2	1546	75.784302222663	0.04660326739535
2	1548	75.884302222663	0.04660326739535
2	1548	75.914558542	0.04660326739535
2	1550	75.984302222663	0.04660326739535
2	1552	76.084302222663	0.04660326739535
2	1554	76.184302222663	0.04660326739535
2	1554	76.200814675	0.04660326739535
2	1556	76.284302222663	0.04660326739535
2	1558	76.384302222663	0.04660326739535
2	1560	76.484302222663	0.04660326739535
2	1562	76.584302222663	0.04660326739535
2	1564	76.684302222663	0.04660326739535
2	1564	76.732704913	0.04660326739535
2	1566	76.784302222663	0.04660326739535
2	1568	76.884302222663	0.04660326739535
2	1570	76.984302222663	0.04660326739535
2	1572	77.084302222663	0.04660326739535
2	1574	77.184302222663	0.046137234721396
2	1574	77.184302222663	0.046137234721396
2	1576	77.284302222663	0.046137234721396
2	1576	77.323718602	0.046137234721396
2	1578	77.384302222663	0.046137234721396
2	1580	77.484302222663	0.046137234721396
2	1582	77.584302222663	0.046137234721396
2	1584	77.684302222663	0.046137234721396
2	1586	77.784302222663	0.046137234721396
2	1587	77.874659239	0.046137234721396
2	1588	77.884302222663	0.046137234721396
2	1590	77.984302222663	0.046137234721396
2	1592	78.084302222663	0.046137234721396
2	1592	78.165372052	0.046137234721396
2	1594	78.184302222663	0.046137234721396
2	1596	78.284302222663	0.046137234721396
2	1598	78.384302222663	0.046137234721396
2	1600	78.484302222663	0.046137234721396
2	1602	78.584302222663	0.045675862374182
[...]
2	1961	96.284302222663	0.04249595669478
2	1962	96.285313048968	0.0425
2	1964	96.384302222663	0.04289595669478
2	1965	96.410313048968	0.043
2	1965	96.42386677	0.043054214884128
2	1967	96.484302222663	0.04329595669478
2	1968	96.535313048968	0.0435
2	1970	96.584302222663	0.04369595669478
2	1972	96.660313048968	0.044
2	1973	96.684302222663	0.04409595669478
2	1975	96.784302222663	0.04449595669478
2	1976	96.785313048968	0.0445
2	1977	96.879962638	0.044878598356128
2	1978	96.884302222663	0.04489595669478
2	1979	96.910313048968	0.045
2	1981	96.984302222663	0.04529595669478
2	1982	97.035313048968	0.0455
2	1984	97.084302222663	0.04569595669478
2	1987	97.160313048968	0.046
2	1988	97.184302222663	0.04609595669478
2	1990	97.284302222663	0.046030997127832
2	1990	97.284302222663	0.046030997127832
2	1991	97.285313048968	0.0465
2	1992	97.383760231	0.046893788728128
2	1993	97.384302222663	0.04689595669478
2	1994	97.410313048968	0.047
2	1996	97.484302222663	0.04729595669478
2	1997	97.535313048968	0.0475
2	1999	97.584302222663	0.04769595669478
2	2001	97.660313048968	0.048
2	2002	97.684302222663	0.04809595669478
2	2004	97.784302222663	0.04849595669478
2	2005	97.785313048968	0.0485
2	2006	97.867558519	0.048828981880128
2	2007	97.884302222663	0.04889595669478
2	2008	97.910313048968	0.049
2	2010	97.984302222663	0.04929595669478
2	2011	98.035313048968	0.0495
2	2013	98.084302222663	0.04969595669478
2	2016	98.160313048968	0.05
2	2017	98.184302222663	0.05
2	2019	98.284302222663	0.05
2	2021	98.384302222663	0.05
2	2023	98.484302222663	0.05
2	2023	98.531809666	0.05
2	2025	98.584302222663	0.05
2	2027	98.684302222663	0.05
2	2029	98.784302222663	0.05
2	2031	98.884302222663	0.05
2	2033	98.984302222663	0.05
2	2035	99.084302222663	0.05
2	2036	99.141768589	0.05
2	2037	99.184302222663	0.05
2	2039	99.284302222663	0.05
2	2041	99.384302222663	0.05
2	2043	99.484302222663	0.05
2	2045	99.584302222663	0.05
2	2047	99.684302222663	0.05
2	2049	99.784302222663	0.05
2	2049	99.79256923	0.05
2	2051	99.884302222663	0.05
2	2053	99.984302222663	0.05
2	2055	100.084302222663	0.05
2	2057	100.184302222663	0.05
2	2059	100.284302222663	0.05
2	2061	100.384302222663	0.05
2	2061	100.396870093	0.05
2	2063	100.484302222663	0.05
2	2065	100.584302222663	0.05
2	2067	100.684302222663	0.05
2	2069	100.784302222663	0.05
2	2071	100.884302222663	0.05
2	2074	100.984302222663	0.05
2	2074	101.00499523	0.05
2	2076	101.084302222663	0.05
2	2078	101.184302222663	0.0495
2	2078	101.184302222663	0.0495
2	2080	101.284302222663	0.0499
2	2082	101.384302222663	0.05
2	2084	101.484302222663	0.05
2	2086	101.584302222663	0.05
2	2086	101.65914331	0.05
2	2088	101.684302222663	0.05
2	2090	101.784302222663	0.05
2	2092	101.884302222663	0.05
2	2094	101.984302222663	0.05
2	2096	102.084302222663	0.05
2	2098	102.184302222663	0.05
2	2098	102.265489555	0.05
2	2100	102.284302222663	0.05
2	2102	102.384302222663	0.05
2	2104	102.484302222663	0.05
2	2106	102.584302222663	0.05
2	2108	102.684302222663	0.0495
2	2108	102.684302222663	0.0495
2	2108	102.748434595	0.049756529489348
2	2110	102.784302222663	0.0499
2	2112	102.884302222663	0.05
2	2114	102.984302222663	0.05
2	2116	103.084302222663	0.05
2	2116	103.156023895	0.05
2	2118	103.184302222663	0.05
2	2120	103.284302222663	0.05
2	2122	103.384302222663	0.05
2	2124	103.484302222663	0.05
2	2126	103.584302222663	0.05
2	2126	103.590662974	0.05
2	2128	103.684302222663	0.05
2	2130	103.784302222663	0.05
2	2132	103.884302222663	0.05
2	2134	103.984302222663	0.05
2	2136	104.084302222663	0.0495
2	2136	104.084302222663	0.0495
2	2136	104.097796483	0.049553977041348
2	2138	104.184302222663	0.0499
2	2140	104.284302222663	0.05
2	2142	104.384302222663	0.05
2	2144	104.484302222663	0.05
2	2146	104.584302222663	0.05
2	2147	104.684156881	0.05
2	2148	104.684302222663	0.05
2	2150	104.784302222663	0.05
2	2152	104.884302222663	0.05
2	2154	104.984302222663	0.05
2	2156	105.084302222663	0.05
2	2158	105.184302222663	0.05
2	2158	105.196822477	0.05
2	2160	105.284302222663	0.05
2	2162	105.384302222663	0.05
2	2164	105.484302222663	0.0495
2	2164	105.484302222663	0.0495
2	2166	105.584302222663	0.0499
2	2168	105.684302222663	0.05
2	2168	105.694915003	0.05
2	2170	105.784302222663	0.05
2	2172	105.884302222663	0.05
2	2174	105.984302222663	0.05
2	2176	106.084302222663	0.05
2	2178	106.184302222663	0.05
2	2179	106.278335044	0.05
2	2180	106.284302222663	0.05
2	2182	106.384302222663	0.05
2	2184	106.484302222663	0.05
2	2186	106.584302222663	0.05
2	2188	106.684302222663	0.05
2	2190	106.784302222663	0.05
2	2191	106.88392945	0.05
2	2192	106.884302222663	0.0495
2	2192	106.884302222663	0.0495
2	2194	106.984302222663	0.0499
2	2196	107.084302222663	0.05
2	2198	107.184302222663	0.05
2	2200	107.284302222663	0.05
2	2202	107.384302222663	0.05
2	2202	107.43936868	0.05
2	2204	107.484302222663	0.05
2	2206	107.584302222663	0.05
2	2208	107.684302222663	0.05
2	2210	107.784302222663	0.05
2	2212	107.884302222663	0.05
2	2214	107.984302222663	0.05
2	2214	108.023428729	0.05
2	2216	108.084302222663	0.05
2	2218	108.184302222663	0.05
2	2220	108.284302222663	0.05
2	2222	108.384302222663	0.0495
2	2222	108.384302222663	0.0495
2	2224	108.484302222663	0.0499
2	2226	108.584302222663	0.05
2	2227	108.672845017	0.05
2	2228	108.684302222663	0.05
2	2230	108.784302222663	0.05
2	2232	108.884302222663	0.05
2	2234	108.984302222663	0.05
2	2236	109.084302222663	0.05
2	2238	109.184302222663	0.05
2	2238	109.21520869	0.05
2	2240	109.284302222663	0.05
2	2242	109.384302222663	0.05
2	2244	109.484302222663	0.05
2	2246	109.584302222663	0.05
2	2248	109.684302222663	0.05
2	2248	109.729225186	0.05
2	2250	109.784302222663	0.0495
2	2250	109.784302222663	0.0495
2	2252	109.884302222663	0.0499
2	2254	109.984302222663	0.05
2	2256	110.084302222663	0.05
2	2258	110.184302222663	0.05
2	2260	110.284302222663	0.05
2	2260	110.345749309	0.05
2	2262	110.384302222663	0.05
2	2263	110.397300692583	0.05
2	2265	110.497300692583	0.05
2	2267	110.597300692583	0.05
2	2269	110.697300692583	0.05
2	2271	110.797300692583	0.05
2	2273	110.897300692583	0.05
2	2273	110.939767756	0.05
2	2275	110.997300692583	0.05
2	2277	111.097300692583	0.05
2	2279	111.197300692583	0.05
2	2281	111.297300692583	0.05
2	2283	111.397300692583	0.05
2	2285	111.497300692583	0.05
2	2287	111.597300692583	0.05
2	2288	111.68568499	0.05
2	2289	111.697300692583	0.05
2	2291	111.797300692583	0.05
2	2293	111.897300692583	0.05
2	2295	111.997300692583	0.05
2	2297	112.097300692583	0.05
2	2298	112.175866192	0.05
2	2299	112.197300692583	0.05
2	2301	112.297300692583	0.05
2	2303	112.397300692583	0.05
2	2305	112.497300692583	0.05
2	2307	112.597300692583	0.05
2	2309	112.697300692583	0.05
2	2309	112.698830347	0.05
2	2311	112.797300692583	0.05
2	2313	112.897300692583	0.05
2	2315	112.997300692583	0.05
2	2317	113.097300692583	0.05
2	2318	113.166511492	0.05
2	2319	113.197300692583	0.05
2	2321	113.297300692583	0.05
2	2323	113.397300692583	0.05
2	2325	113.497300692583	0.05
2	2327	113.597300692583	0.05
2	2327	113.615856298	0.05
2	2329	113.697300692583	0.05
2	2331	113.797300692583	0.05
2	2333	113.897300692583	0.05
2	2335	113.997300692583	0.05
2	2336	114.061943062	0.0495
2	2336	114.061943062	0.0495
2	2337	114.097300692583	0.049641430522332
2	2339	114.197300692583	0.05
2	2341	114.297300692583	0.05
2	2343	114.397300692583	0.05
2	2345	114.497300692583	0.05
2	2345	114.512795953	0.05
2	2347	114.597300692583	0.05
2	2349	114.697300692583	0.05
2	2351	114.797300692583	0.05
2	2351	114.809591269	0.05
2	2353	114.897300692583	0.05
2	2355	114.997300692583	0.05
2	2357	115.097300692583	0.05
2	2359	115.197300692583	0.05
2	2361	115.297300692583	0.05
2	2361	115.305416461	0.05
2	2363	115.397300692583	0.05
2	2365	115.497300692583	0.05
2	2367	115.597300692583	0.05
2	2369	115.697300692583	0.05
2	2370	115.75841077	0.05
2	2371	115.797300692583	0.05
2	2373	115.897300692583	0.05
2	2374	115.98201556	0.05
2	2375	115.997300692583	0.05
2	2377	116.097300692583	0.05
2	2379	116.197300692583	0.05
2	2381	116.297300692583	0.05
2	2383	116.397300692583	0.05
2	2384	116.464704688	0.05
2	2385	116.497300692583	0.05
2	2387	116.597300692583	0.05
2	2389	116.697300692583	0.05
2	2391	116.797300692583	0.05
2	2393	116.897300692583	0.05
2	2393	116.932689331	0.05
2	2395	116.9659192351	0.05
2	2397	117.0659192351	0.05
2	2399	117.1659192351	0.05
2	2401	117.2659192351	0.05
2	2403	117.3659192351	0.05
2	2403	117.427493239	0.05
2	2405	117.4659192351	0.05
2	2407	117.5659192351	0.05
2	2409	117.6659192351	0.05
2	2411	117.7659192351	0.05
2	2413	117.8659192351	0.05
2	2415	117.9659192351	0.05
2	2415	118.003834114	0.05
2	2417	118.0659192351	0.05
2	2419	118.1659192351	0.05
2	2419	118.243065325	0.05
2	2421	118.2659192351	0.05
2	2423	118.3659192351	0.05
2	2425	118.4659192351	0.05
2	2427	118.5659192351	0.05
2	2429	118.6659192351	0.05
2	2429	118.73365747	0.05
2	2431	118.7659192351	0.05
2	2433	118.8659192351	0.05
2	2435	118.9659192351	0.05
2	2437	119.0659192351	0.05
2	2439	119.1659192351	0.05
2	2441	119.2659192351	0.05
2	2443	119.3659192351	0.05
2	2443	119.378433577	0.05
2	2445	119.4659192351	0.05
2	2447	119.5659192351	0.05
2	2449	119.6659192351	0.05
2	2451	119.7659192351	0.05
2	2453	119.8659192351	0.05
2	2455	119.9659192351	0.05
2	2455	120.011358037	0.05
2	2457	120.0659192351	0.05
2	2459	120.1659192351	0.05
2	2461	120.2659192351	0.05
2	2463	120.3659192351	0.05
2	2465	120.4659192351	0.05
2	2467	120.5659192351	0.05
2	2467	120.598661131	0.05
2	2469	120.6659192351	0.05
2	2471	120.7659192351	0.05
2	2473	120.8659192351	0.05
2	2475	120.9659192351	0.05
2	2477	121.0659192351	0.05
2	2477	121.085379298	0.05
2	2479	121.1659192351	0.05
2	2481	121.2659192351	0.05
2	2483	121.3659192351	0.05
2	2485	121.4659192351	0.05
2	2487	121.5659192351	0.05
2	2487	121.599447796	0.05
2	2489	121.6659192351	0.05
2	2491	121.7659192351	0.05
2	2493	121.8659192351	0.05
2	2495	121.9659192351	0.05
2	2497	122.0659192351	0.05
2	2497	122.088978235	0.05
2	2499	122.1659192351	0.05
2	2501	122.2659192351	0.05
2	2503	122.3659192351	0.05
2	2505	122.4659192351	0.05
2	2506	122.533213864	0.05
2	2507	122.5659192351	0.05
2	2509	122.6659192351	0.05
2	2511	122.7659192351	0.05
2	2513	122.8659192351	0.05
2	2515	122.9659192351	0.05
2	2516	123.027258304	0.05
2	2517	123.0659192351	0.05
2	2519	123.1659192351	0.05
2	2521	123.2659192351	0.05
2	2523	123.3659192351	0.05
2	2525	123.4659192351	0.05
2	2525	123.512507749	0.05
2	2527	123.5659192351	0.05
2	2529	123.6659192351	0.05
2	2531	123.7659192351	0.05
2	2533	123.8659192351	0.05
2	2534	123.964349746	0.05
2	2535	123.9659192351	0.05
2	2537	124.0659192351	0.05
2	2540	124.1659192351	0.05
2	2542	124.265505309166	0.05
2	2544	124.365505309166	0.05
2	2546	124.465505309166	0.05
2	2546	124.4899792	0.05
2	2548	124.565505309166	0.05
2	2550	124.665505309166	0.05
2	2552	124.765505309166	0.05
2	2554	124.865505309166	0.05
2	2556	124.965505309166	0.05
2	2558	125.065505309166	0.05
2	2560	125.165505309166	0.05
2	2560	125.173413685	0.05
2	2562	125.265505309166	0.0495
2	2562	125.265505309166	0.0495
2	2564	125.365505309166	0.0499
2	2566	125.465505309166	0.05
2	2568	125.565505309166	0.05
2	2570	125.665505309166	0.05
2	2571	125.740399144	0.05
2	2572	125.765505309166	0.05
2	2574	125.865505309166	0.05
2	2576	125.965505309166	0.05
2	2578	126.065505309166	0.05
2	2580	126.165505309166	0.05
2	2581	126.22714297	0.05
2	2582	126.265505309166	0.05
2	2584	126.365505309166	0.05
2	2586	126.465505309166	0.05
2	2588	126.565505309166	0.05
2	2589	126.650259055	0.05
2	2590	126.665505309166	0.0495
2	2590	126.665505309166	0.0495
2	2592	126.765505309166	0.0499
2	2594	126.865505309166	0.05
2	2595	126.926445778	0.05
2	2596	126.965505309166	0.05
2	2598	127.065505309166	0.05
2	2600	127.165505309166	0.05
2	2602	127.265505309166	0.05
2	2604	127.365505309166	0.05
2	2605	127.437389317	0.05
2	2606	127.465505309166	0.05
2	2608	127.565505309166	0.05
2	2610	127.665505309166	0.05
2	2612	127.765505309166	0.05
2	2614	127.865505309166	0.05
2	2616	127.965505309166	0.05
2	2618	128.065505309166	0.05
2	2620	128.165505309166	0.0495
2	2620	128.165505309166	0.0495
2	2622	128.265505309166	0.0499
2	2623	128.282891311	0.049969544007336
2	2624	128.365505309166	0.05
2	2626	128.465505309166	0.05
2	2628	128.565505309166	0.05
2	2630	128.665505309166	0.05
2	2631	128.676414247	0.05
2	2632	128.765505309166	0.05
2	2634	128.865505309166	0.05
2	2635	128.938736392	0.05
2	2636	128.965505309166	0.05
2	2638	129.065505309166	0.05
2	2640	129.165505309166	0.05
2	2642	129.265505309166	0.05
2	2644	129.365505309166	0.05
2	2645	129.390521929	0.05
2	2646	129.465505309166	0.0495
2	2646	129.465505309166	0.0495
2	2648	129.565505309166	0.0499
2	2649	129.627358717	0.05
2	2650	129.665505309166	0.05
2	2652	129.765505309166	0.05
2	2654	129.865505309166	0.05
2	2656	129.965505309166	0.05
2	2657	130.061603632	0.05
2	2658	130.065505309166	0.05
2	2660	130.165505309166	0.05
2	2662	130.265505309166	0.05
2	2664	130.360967844889	0.05
2	2666	130.460967844889	0.05
2	2667	130.517315191	0.05
2	2668	130.560967844889	0.05
2	2670	130.660967844889	0.05
2	2672	130.760967844889	0.05
2	2674	130.860967844889	0.0495
2	2674	130.860967844889	0.0495
2	2676	130.960967844889	0.0499
2	2677	131.052945634	0.05
2	2678	131.060967844889	0.05
2	2680	131.160967844889	0.05
2	2682	131.260967844889	0.05
2	2684	131.360967844889	0.05
2	2686	131.460967844889	0.05
2	2687	131.550419398	0.05
2	2688	131.560967844889	0.05
2	2690	131.660967844889	0.05
2	2692	131.760967844889	0.05
2	2694	131.860967844889	0.05
2	2696	131.960967844889	0.05
2	2698	132.060967844889	0.05
2	2699	132.145683121	0.05
2	2700	132.160967844889	0.05
2	2702	132.260967844889	0.0495
2	2702	132.260967844889	0.0495
2	2704	132.360967844889	0.0499
2	2706	132.460967844889	0.05
2	2708	132.560967844889	0.05
2	2709	132.633629725	0.05
2	2710	132.660967844889	0.05
2	2712	132.760967844889	0.05
2	2714	132.860967844889	0.05
2	2716	132.960967844889	0.05
2	2717	133.058409349	0.05
2	2718	133.060967844889	0.05
2	2720	133.160967844889	0.05
2	2722	133.260967844889	0.05
2	2723	133.320010003	0.05
2	2724	133.360967844889	0.05
2	2726	133.460967844889	0.05
2	2728	133.560967844889	0.05
2	2730	133.660967844889	0.0495
2	2730	133.660967844889	0.0495
2	2732	133.760967844889	0.0499
2	2733	133.824285523	0.05
2	2734	133.860967844889	0.05
2	2736	133.960967844889	0.05
2	2738	134.060967844889	0.05
2	2739	134.082374899	0.05
2	2740	134.160967844889	0.05
2	2742	134.260967844889	0.05
2	2744	134.360967844889	0.05
2	2746	134.460967844889	0.05
2	2748	134.560967844889	0.05
2	2749	134.580475003	0.05
2	2750	134.660967844889	0.05
2	2752	134.760967844889	0.05
2	2754	134.860967844889	0.05
2	2756	134.960967844889	0.05
2	2757	135.019316824	0.05
2	2758	135.060967844889	0.05
2	2760	135.160967844889	0.05
2	2762	135.260967844889	0.05
2	2764	135.360967844889	0.05
2	2766	135.460967844889	0.05
2	2767	135.503925589	0.05
2	2768	135.560967844889	0.05
2	2770	135.660967844889	0.05
2	2772	135.760967844889	0.05
2	2774	135.860967844889	0.05
2	2775	135.93095554	0.05
2	2776	135.960967844889	0.05
2	2778	136.060967844889	0.05
2	2780	136.160967844889	0.05
2	2781	136.196501416	0.05
2	2782	136.260967844889	0.05
2	2784	136.360967844889	0.0495
2	2784	136.360967844889	0.0495
2	2786	136.460967844889	0.0499
2	2788	136.46462170339	0.049914615434004
2	2790	136.56462170339	0.05
2	2790	136.608387592	0.05
2	2792	136.66462170339	0.05
2	2794	136.76462170339	0.05
2	2796	136.86462170339	0.05
2	2798	136.96462170339	0.05
2	2799	136.981677303329	0.05
2	2800	137.063950189	0.05
2	2801	137.06462170339	0.05
2	2803	137.16462170339	0.05
2	2805	137.26462170339	0.05
2	2805	137.290029892	0.05
2	2807	137.36462170339	0.05
2	2809	137.46462170339	0.05
2	2811	137.56462170339	0.05
2	2813	137.66462170339	0.05
2	2815	137.76462170339	0.05
2	2815	137.803981375	0.05
2	2817	137.86462170339	0.05
2	2819	137.96462170339	0.05
2	2821	138.06462170339	0.05
2	2821	138.074669647	0.05
2	2823	138.16462170339	0.05
2	2825	138.26462170339	0.05
2	2827	138.36462170339	0.05
2	2829	138.46462170339	0.05
2	2831	138.56462170339	0.05
2	2831	138.606091072	0.05
2	2833	138.66462170339	0.05
2	2835	138.76462170339	0.05
2	2837	138.86462170339	0.05
2	2839	138.96462170339	0.05
2	2841	139.06462170339	0.05
2	2843	139.16462170339	0.05
2	2845	139.26462170339	0.05
2	2845	139.292980456	0.05
2	2847	139.36462170339	0.05
2	2849	139.46462170339	0.05
2	2851	139.56462170339	0.05
2	2853	139.66462170339	0.05
2	2855	139.76462170339	0.05
2	2857	139.86462170339	0.05
2	2857	139.89523981	0.05
2	2859	139.96462170339	0.05
2	2861	140.06462170339	0.05
2	2863	140.16462170339	0.05
2	2865	140.26462170339	0.05
2	2866	140.299967778035	0.05
2	2868	140.399967778035	0.05
2	2868	140.455789252	0.0495
2	2868	140.455789252	0.0495
2	2870	140.499967778035	0.0495
2	2872	140.599967778035	0.0495
2	2874	140.699967778035	0.0495
2	2876	140.799967778035	0.0495
2	2878	140.899967778035	0.0495
2	2878	140.927027971	0.0495
2	2880	140.999967778035	0.0495
2	2882	141.099967778035	0.0495
2	2884	141.199967778035	0.0495
2	2884	141.214339864	0.0495
2	2886	141.299967778035	0.0495
2	2888	141.399967778035	0.0495
2	2890	141.499967778035	0.0495
2	2892	141.599967778035	0.0495
2	2892	141.633498766	0.0495
2	2894	141.699967778035	0.0495
2	2896	141.799967778035	0.049005
2	2896	141.799967778035	0.049005
2	2898	141.899967778035	0.049005
2	2900	141.999967778035	0.049005
2	2900	142.030203331	0.049005
2	2902	142.099967778035	0.049005
2	2904	142.199967778035	0.049005
2	2905	142.281251779	0.049005
2	2906	142.299967778035	0.049005
2	2908	142.399967778035	0.049005
2	2910	142.499967778035	0.049005
2	2912	142.599967778035	0.049005
2	2914	142.699967778035	0.049005
2	2915	142.771706749	0.049005
2	2916	142.799967778035	0.049005
2	2918	142.899967778035	0.049005
2	2920	142.999967778035	0.049005
2	2922	143.099967778035	0.049005
2	2923	143.106150729891	0.049005
2	2925	143.199967778035	0.049380268192576
2	2926	143.229900729891	0.0495
2	2928	143.299967778035	0.049780268192576
2	2928	143.323640518	0.049874959152436
2	2929	143.354900729891	0.05
2	2931	143.399967778035	0.05
2	2933	143.499967778035	0.05
2	2935	143.599967778035	0.05
2	2937	143.699967778035	0.05
2	2937	143.748834499	0.05
2	2939	143.799967778035	0.05
2	2941	143.899967778035	0.05
2	2943	143.999967778035	0.05
2	2945	144.099967778035	0.05
2	2946	144.197984098	0.05
2	2947	144.199967778035	0.05
2	2949	144.299967778035	0.05
2	2951	144.399967778035	0.05
2	2952	144.495616903	0.05
2	2953	144.499967778035	0.05
2	2955	144.599967778035	0.05
2	2957	144.699967778035	0.05
2	2959	144.799967778035	0.05
2	2961	144.899967778035	0.05
2	2963	144.999967778035	0.05
2	2963	145.024741372	0.05
2	2965	145.099967778035	0.05
2	2967	145.199967778035	0.05
2	2969	145.299967778035	0.05
2	2971	145.399967778035	0.05
2	2972	145.469014486	0.05
2	2973	145.499967778035	0.05
2	2975	145.599967778035	0.05
2	2977	145.699967778035	0.05
2	2979	145.799967778035	0.05
2	2981	145.899967778035	0.05
2	2981	145.963009825	0.05
2	2983	145.999967778035	0.05
2	2985	146.099967778035	0.05
2	2987	146.199967778035	0.05
2	2989	146.299967778035	0.05
2	2990	146.368572838	0.05
2	2991	146.399967778035	0.05
2	2993	146.499967778035	0.05
2	2995	146.599967778035	0.05
2	2996	146.665348699	0.05
2	2997	146.699967778035	0.05
2	2999	146.799967778035	0.05
2	3001	146.899967778035	0.05
2	3003	146.999967778035	0.05
2	3004	147.093253009	0.05
2	3005	147.099967778035	0.05
2	3007	147.199967778035	0.05
2	3009	147.299967778035	0.05
2	3011	147.399967778035	0.05
2	3013	147.499967778035	0.05
2	3014	147.585882472	0.05
2	3015	147.599967778035	0.05
2	3017	147.699967778035	0.05
2	3019	147.799967778035	0.05
2	3021	147.899967778035	0.05
2	3023	147.999967778035	0.05
2	3025	148.099967778035	0.05
2	3025	148.123605808	0.05
2	3025	148.163415778647	0.05
3	0	0	0.004
3	940	46.974101355068	0
3	1127	56.223580848839	0.004
3	1369	66.971635917307	0
3	1946	95.781911401734	0.004
3	2799	136.981677303329	0
3	2923	143.106150729891	0.004
4	0	0	0.004
4	461	23.08057828677	0
4	1204	59.885682236611	0.004
4	1986	97.141909403583	0
4	2014	98.098332034123	0.004
4	2538	124.08304926049	0
5	0	0	0.004
5	940	46.974101355068	0
5	1127	56.223580848839	0.004
5	1369	66.971635917307	0
5	1946	95.781911401734	0.004
5	2799	136.981677303329	0
5	2923	143.106150729891	0.004

