version 2
run Mysterio_ex2-0-20210907-20:38:32-10727
attr configname Mysterio_ex2
attr datetime 20210907-20:38:32
attr experiment Mysterio_ex2
attr inifile omnetpp.ini
attr iterationvars ""
attr iterationvarsf ""
attr measurement ""
attr network MysterioCommunication2
attr processid 10727
attr repetition 0
attr replication #0
attr resultdir results
attr runnumber 0
attr seedset 0
param *.host[*].mobility.numeroDrones 2
param *.numHosts 2
param *.host[*].osgModel "\"3d/drone.ive.100.scale.0,0,90.rot\""
param *.basestation.osgModel "\"3d/car.ive.50.scale.0,0,90.rot\""
param *.canvasVisualizer.energyStorageVisualizer.displayEnergyStorages true
param *.host[*].hasStatus true
param *.host[*].energyStorage.typename "\"SimpleEpEnergyStorage\""
param *.host[*].wlan[*].radio.energyConsumer.typename "\"StateBasedEpEnergyConsumer\""
param *.host[*].energyManagement.typename "\"SimpleEpEnergyManagement\""
param *.host[*].energyStorage.nominalCapacity 0.05J
param *.host[*].energyManagement.nodeShutdownCapacity "0.1 * energyStorage.nominalCapacity"
param *.host[*].energyManagement.nodeStartCapacity "0.5 * energyStorage.nominalCapacity"
param *.host[*].energyStorage.initialCapacity 0.05J
param *.host[*].energyGenerator.typename "\"AlternatingEpEnergyGenerator\""
param *.host[*].energyGenerator.powerGeneration 4mW
param *.host[*].energyGenerator.sleepInterval exponential(25s)
param *.host[*].energyGenerator.generationInterval exponential(25s)
param *.host[*].mobility.typename "\"UAVMobility\""
param *.host[*].mobility.changeInterval 1s
param *.host[*].mobility.initialMovementHeading "uniform(0deg, 360deg)"
param *.host[*].mobility.initialMovementElevation "uniform(-90deg, 90deg)"
param *.host[*].mobility.angleDelta uniform(-10deg,10deg)
param *.host[*].mobility.rotationAxisAngle uniform(-10deg,10deg)
param *.host[*].mobility.speed uniform(10mps,20mps)
param *.host[*].mobility.faceForward false
param *.host[*].mobility.initialX 220m
param *.host[*].mobility.initialY 220m
param *.host[*].mobility.initialZ 80m
param *.visualizer.osgVisualizer.typename "\"IntegratedOsgVisualizer\""
param *.visualizer.osgVisualizer.sceneVisualizer.clearColor "\"skyblue\""
param *.visualizer.osgVisualizer.sceneVisualizer.sceneImage "\"showcases/desert\""
param *.visualizer.osgVisualizer.sceneVisualizer.sceneImageSize 5000m
param *.visualizer.osgVisualizer.sceneVisualizer.axisLength 1000m
param *.visualizer.osgVisualizer.sceneVisualizer.sceneMinX -2000m
param *.visualizer.osgVisualizer.sceneVisualizer.sceneMinY -2000m
param *.visualizer.osgVisualizer.sceneVisualizer.sceneMinZ 0m
param *.visualizer.osgVisualizer.sceneVisualizer.sceneMaxX 3000m
param *.visualizer.osgVisualizer.sceneVisualizer.sceneMaxY 3000m
param *.visualizer.osgVisualizer.sceneVisualizer.sceneMaxZ 1000m
param *.visualizer.osgVisualizer.networkNodeVisualizer.displayModuleName false
param *.visualizer.*.mobilityVisualizer.displayMobility true
param *.visualizer.*.mobilityVisualizer.displayPositions true
param *.visualizer.*.mobilityVisualizer.displayOrientations false
param *.visualizer.*.mobilityVisualizer.displayVelocities true
param *.visualizer.*.mobilityVisualizer.displayMovementTrails true
param *.visualizer.*.mobilityVisualizer.animationSpeed 3
param **.constraintAreaMinX 0m
param **.constraintAreaMinY 0m
param **.constraintAreaMinZ 0m
param **.constraintAreaMaxX 1000m
param **.constraintAreaMaxY 1000m
param **.constraintAreaMaxZ 1000m
param **.networkConfiguratorModule "\"\""

vector 0 MysterioCommunication2.host[0].energyStorage residualEnergyCapacity:vector ETV
attr interpolationmode linear
attr source residualEnergyCapacityChanged
attr title "Residual energy capacity, vector"
vector 1 MysterioCommunication2.host[0].energyGenerator powerGeneration:vector ETV
attr interpolationmode sample-hold
attr source powerGenerationChanged
attr title "Power generation, vector"
vector 2 MysterioCommunication2.host[1].energyStorage residualEnergyCapacity:vector ETV
attr interpolationmode linear
attr source residualEnergyCapacityChanged
attr title "Residual energy capacity, vector"
vector 3 MysterioCommunication2.host[1].energyGenerator powerGeneration:vector ETV
attr interpolationmode sample-hold
attr source powerGenerationChanged
attr title "Power generation, vector"
vector 4 MysterioCommunication2.host[0].energyStorage powerGeneration:vector ETV
attr interpolationmode sample-hold
attr source powerGenerationChanged
attr title "Power generation, vector"
vector 5 MysterioCommunication2.host[1].energyStorage powerGeneration:vector ETV
attr interpolationmode sample-hold
attr source powerGenerationChanged
attr title "Power generation, vector"
0	0	0	0.05
0	0	0.1	0.05
0	2	0.145785973	0.05
0	3	0.2	0.05
0	5	0.3	0.05
0	7	0.4	0.05
0	9	0.5	0.05
0	11	0.6	0.05
0	12	0.616972786	0.05
0	13	0.7	0.05
0	15	0.8	0.05
0	17	0.9	0.05
0	19	1	0.05
0	21	1.1	0.05
0	22	1.171874458	0.05
0	23	1.2	0.05
0	25	1.3	0.05
0	27	1.4	0.05
0	28	1.426384636	0.05
0	29	1.5	0.05
0	31	1.6	0.05
0	33	1.7	0.05
0	35	1.8	0.05
0	36	1.88903239	0.05
0	37	1.9	0.05
0	39	2	0.05
0	41	2.1	0.05
0	42	2.183216803	0.05
0	43	2.2	0.05
0	45	2.3	0.05
0	47	2.4	0.05
0	48	2.452734901	0.05
0	49	2.5	0.05
0	51	2.6	0.05
0	52	2.667259912	0.05
0	53	2.7	0.05
0	55	2.8	0.05
0	57	2.9	0.05
0	58	2.959632349	0.05
0	59	3	0.05
0	61	3.1	0.05
0	63	3.2	0.05
0	64	3.219058927	0.05
0	65	3.3	0.05
0	67	3.4	0.05
0	69	3.5	0.05
0	71	3.6	0.05
0	73	3.7	0.05
0	74	3.706322368	0.05
0	75	3.8	0.05
0	77	3.9	0.05
0	79	4	0.05
0	81	4.1	0.05
0	82	4.134553306	0.05
0	83	4.2	0.05
0	85	4.3	0.05
0	87	4.4	0.05
0	89	4.5	0.05
0	91	4.6	0.05
0	92	4.66981381	0.05
0	93	4.7	0.05
0	95	4.8	0.05
0	97	4.9	0.05
0	99	5	0.05
0	101	5.1	0.05
0	103	5.2	0.05
0	104	5.201166427	0.05
0	105	5.3	0.05
0	107	5.4	0.05
0	109	5.5	0.05
0	111	5.6	0.05
0	112	5.628682666	0.05
0	113	5.7	0.05
0	115	5.8	0.05
0	117	5.9	0.05
0	119	6	0.05
0	121	6.1	0.05
0	122	6.109818064	0.05
0	123	6.2	0.05
0	125	6.3	0.05
0	126	6.3725203	0.05
0	127	6.4	0.05
0	129	6.5	0.05
0	131	6.6	0.05
0	133	6.7	0.05
0	135	6.8	0.05
0	136	6.863940487	0.05
0	137	6.9	0.05
0	139	7	0.05
0	141	7.1	0.05
0	143	7.2	0.05
0	145	7.3	0.05
0	146	7.327760287	0.05
0	147	7.4	0.05
0	149	7.5	0.05
0	151	7.6	0.05
0	153	7.7	0.05
0	154	7.747895719	0.05
0	155	7.8	0.05
0	157	7.9	0.05
0	159	8	0.05
0	161	8.1	0.05
0	162	8.17659592	0.05
0	163	8.2	0.05
0	165	8.3	0.05
0	167	8.4	0.05
0	168	8.476321972	0.05
0	169	8.5	0.05
0	171	8.6	0.05
0	173	8.7	0.05
0	174	8.743215925	0.05
0	175	8.8	0.05
0	177	8.9	0.05
0	179	9	0.05
0	181	9.1	0.05
0	183	9.2	0.05
0	184	9.210847552	0.05
0	185	9.3	0.05
0	187	9.4	0.05
0	189	9.5	0.05
0	190	9.508804465	0.05
0	191	9.6	0.05
0	193	9.7	0.05
0	195	9.8	0.05
0	197	9.9	0.05
0	199	10	0.05
0	200	10.012359892	0.05
0	201	10.1	0.05
0	203	10.2	0.05
0	205	10.3	0.05
0	207	10.4	0.05
0	209	10.5	0.05
0	211	10.6	0.05
0	213	10.7	0.05
0	215	10.8	0.05
0	216	10.810597834	0.05
0	217	10.9	0.05
0	219	11	0.05
0	221	11.1	0.05
0	223	11.2	0.05
0	225	11.3	0.05
0	226	11.334524818	0.05
0	227	11.4	0.05
0	229	11.5	0.05
0	231	11.6	0.05
0	233	11.7	0.05
0	235	11.8	0.05
0	237	11.9	0.05
0	238	11.917334902	0.05
0	239	12	0.05
0	241	12.1	0.05
0	243	12.2	0.05
0	244	12.215265754	0.05
0	245	12.3	0.05
0	247	12.4	0.05
0	249	12.5	0.05
0	251	12.6	0.05
0	253	12.7	0.05
0	255	12.8	0.05
0	257	12.9	0.05
0	258	12.944194072	0.05
0	259	13	0.05
0	261	13.1	0.05
0	263	13.2	0.05
0	265	13.3	0.05
0	267	13.4	0.05
0	268	13.431148009	0.05
0	269	13.5	0.05
0	271	13.6	0.05
0	273	13.7	0.05
0	275	13.8	0.05
0	277	13.9	0.05
0	279	14	0.05
0	280	14.058251998	0.05
0	281	14.1	0.05
0	283	14.2	0.05
0	285	14.3	0.05
0	287	14.4	0.05
0	288	14.475115858	0.05
0	289	14.5	0.05
0	291	14.6	0.05
0	293	14.7	0.05
0	295	14.8	0.05
0	297	14.9	0.05
0	298	14.94628591	0.05
0	299	15	0.05
0	301	15.1	0.05
0	303	15.2	0.05
0	305	15.3	0.05
0	307	15.4	0.05
0	308	15.471159487	0.05
0	309	15.5	0.05
0	311	15.6	0.05
0	313	15.7	0.05
0	315	15.8	0.05
0	317	15.9	0.05
0	319	16	0.05
0	321	16.1	0.05
0	322	16.165491157	0.05
0	323	16.2	0.05
0	325	16.3	0.05
0	327	16.4	0.05
0	329	16.5	0.05
0	331	16.6	0.05
0	333	16.7	0.05
0	334	16.761154711	0.05
0	335	16.8	0.05
0	337	16.9	0.05
0	339	17	0.05
0	341	17.1	0.05
0	343	17.2	0.05
0	344	17.265602659	0.05
0	345	17.3	0.05
0	347	17.4	0.05
0	349	17.5	0.05
0	351	17.6	0.05
0	353	17.7	0.05
0	354	17.723135662	0.05
0	355	17.8	0.05
0	357	17.9	0.05
0	359	18	0.05
0	361	18.1	0.05
0	362	18.149177239	0.05
0	363	18.2	0.05
0	365	18.3	0.05
0	367	18.4	0.05
0	369	18.5	0.05
0	371	18.6	0.05
0	372	18.618380575	0.05
0	373	18.7	0.05
0	375	18.8	0.05
0	377	18.9	0.05
0	379	19	0.05
0	380	19.079425561	0.05
0	381	19.1	0.05
0	383	19.2	0.05
0	385	19.3	0.05
0	386	19.367046178	0.05
0	387	19.4	0.05
0	389	19.5	0.05
0	391	19.6	0.05
0	393	19.7	0.05
0	395	19.8	0.05
0	396	19.871275744	0.05
0	397	19.9	0.05
0	399	20	0.05
0	401	20.1	0.05
0	403	20.2	0.05
0	405	20.3	0.05
0	406	20.38683181	0.05
0	407	20.4	0.05
0	409	20.5	0.05
0	411	20.6	0.05
0	413	20.7	0.05
0	415	20.8	0.05
0	416	20.874334501	0.05
0	417	20.9	0.05
0	419	21	0.05
0	421	21.1	0.05
0	423	21.2	0.05
0	425	21.3	0.05
0	426	21.335834611	0.05
0	427	21.4	0.05
0	429	21.5	0.05
0	431	21.6	0.05
0	432	21.624402115	0.05
0	433	21.7	0.05
0	435	21.8	0.05
0	437	21.9	0.05
0	438	21.905160097	0.05
0	439	22	0.05
0	441	22.1	0.05
0	443	22.2	0.05
0	445	22.3	0.05
0	446	22.33673503	0.05
0	447	22.4	0.05
0	449	22.5	0.05
0	451	22.6	0.05
0	453	22.7	0.05
0	455	22.8	0.05
0	456	22.8173503	0.05
0	457	22.9	0.05
0	459	23	0.05
0	461	23.08057828677	0.05
0	462	23.1	0.05
0	464	23.2	0.05
0	466	23.3	0.05
0	467	23.308604587	0.05
0	468	23.4	0.05
0	470	23.5	0.0495
0	470	23.5	0.0495
0	472	23.6	0.0495
0	474	23.7	0.0495
0	475	23.783836948	0.0495
0	476	23.8	0.0495
0	478	23.9	0.0495
0	480	24	0.0495
0	482	24.1	0.0495
0	484	24.2	0.0495
0	486	24.3	0.0495
0	487	24.319910806	0.0495
0	488	24.4	0.0495
0	490	24.5	0.0495
0	492	24.6	0.0495
0	494	24.7	0.0495
0	496	24.8	0.0495
0	498	24.9	0.0495
0	499	24.988652146	0.049005
0	499	24.988652146	0.049005
0	500	25	0.049005
0	502	25.1	0.049005
0	504	25.2	0.049005
0	506	25.3	0.049005
0	508	25.4	0.049005
0	510	25.5	0.049005
0	511	25.558211083	0.049005
0	512	25.6	0.049005
0	514	25.7	0.049005
0	516	25.8	0.049005
0	517	25.855154848	0.049005
0	518	25.9	0.049005
0	520	26	0.049005
0	522	26.1	0.049005
0	523	26.14251118	0.049005
0	524	26.2	0.049005
0	526	26.3	0.04851495
0	526	26.3	0.04851495
0	528	26.4	0.04851495
0	530	26.5	0.04851495
0	531	26.599626736	0.04851495
0	532	26.6	0.04851495
0	534	26.633716071587	0.04851495
0	535	26.7	0.048780085713652
0	537	26.754978571587	0.049
0	538	26.8	0.049180085713652
0	539	26.835029032	0.049320201841652
0	540	26.879978571587	0.0495
0	541	26.9	0.049580085713652
0	543	27	0.049980085713652
0	545	27.004978571587	0.05
0	546	27.1	0.05
0	548	27.2	0.05
0	550	27.3	0.05
0	551	27.368610319	0.05
0	552	27.4	0.05
0	554	27.5	0.0495
0	554	27.5	0.0495
0	556	27.6	0.0499
0	558	27.7	0.05
0	560	27.8	0.05
0	562	27.9	0.05
0	564	28	0.05
0	565	28.057521592	0.05
0	566	28.1	0.05
0	568	28.2	0.05
0	570	28.3	0.05
0	572	28.4	0.05
0	574	28.5	0.05
0	575	28.576370782	0.05
0	576	28.6	0.05
0	578	28.7	0.05
0	580	28.8	0.05
0	582	28.9	0.05
0	584	29	0.0495
0	584	29	0.0495
0	585	29.040722416	0.049662889664
0	586	29.1	0.0499
0	588	29.2	0.05
0	590	29.3	0.05
0	592	29.4	0.05
0	594	29.5	0.05
0	595	29.573854342	0.05
0	596	29.6	0.05
0	598	29.7	0.05
0	600	29.8	0.05
0	602	29.9	0.05
0	604	30	0.05
0	605	30.062894383	0.05
0	606	30.1	0.05
0	608	30.2	0.05
0	610	30.3	0.05
0	612	30.4	0.0495
0	612	30.4	0.0495
0	614	30.5	0.0499
0	615	30.549823486	0.05
0	616	30.6	0.05
0	618	30.7	0.05
0	620	30.8	0.05
0	622	30.9	0.05
0	623	30.997966804	0.05
0	624	31	0.05
0	626	31.1	0.05
0	628	31.2	0.05
0	630	31.3	0.05
0	632	31.4	0.05
0	634	31.5	0.05
0	635	31.503595996	0.05
0	636	31.6	0.05
0	638	31.7	0.05
0	639	31.793716375	0.0495
0	639	31.793716375	0.0495
0	640	31.8	0.0495251345
0	642	31.9	0.0499251345
0	644	32	0.05
0	646	32.1	0.05
0	648	32.2	0.05
0	649	32.211332719	0.05
0	650	32.3	0.05
0	652	32.4	0.05
0	654	32.5	0.05
0	656	32.6	0.05
0	657	32.65057036	0.05
0	658	32.7	0.05
0	660	32.8	0.05
0	662	32.9	0.05
0	664	33	0.05
0	666	33.1	0.05
0	667	33.139235011	0.0495
0	667	33.139235011	0.0495
0	668	33.2	0.049743059956
0	670	33.3	0.05
0	672	33.4	0.05
0	674	33.5	0.05
0	675	33.541586749	0.05
0	676	33.6	0.05
0	678	33.7	0.05
0	680	33.8	0.05
0	682	33.9	0.05
0	683	33.992183299	0.05
0	684	34	0.05
0	686	34.1	0.05
0	688	34.2	0.05
0	690	34.3	0.05
0	692	34.4	0.05
0	693	34.447871185	0.05
0	694	34.5	0.0495
0	694	34.5	0.0495
0	696	34.6	0.0499
0	698	34.7	0.05
0	700	34.8	0.05
0	701	34.874043085	0.05
0	702	34.9	0.05
0	704	35	0.05
0	706	35.1	0.05
0	708	35.2	0.05
0	710	35.3	0.05
0	711	35.372572459	0.05
0	712	35.4	0.05
0	714	35.5	0.05
0	716	35.6	0.05
0	718	35.7	0.05
0	720	35.8	0.05
0	722	35.9	0.05
0	723	35.906915623	0.0495
0	723	35.906915623	0.0495
0	724	36	0.049872337508
0	726	36.1	0.05
0	728	36.2	0.05
0	730	36.3	0.05
0	732	36.4	0.05
0	734	36.5	0.05
0	735	36.587214514	0.05
0	736	36.6	0.05
0	738	36.7	0.05
0	740	36.8	0.05
0	742	36.9	0.05
0	744	37	0.05
0	746	37.1	0.05
0	748	37.2	0.05
0	749	37.229438197	0.05
0	750	37.3	0.05
0	752	37.4	0.0495
0	752	37.4	0.0495
0	754	37.5	0.0499
0	756	37.6	0.05
0	758	37.7	0.05
0	760	37.8	0.05
0	761	37.82639059	0.05
0	762	37.9	0.05
0	764	38	0.05
0	766	38.1	0.05
0	768	38.2	0.05
0	770	38.3	0.05
0	772	38.4	0.05
0	773	38.436281359	0.05
0	774	38.5	0.05
0	776	38.6	0.05
0	778	38.7	0.05
0	779	38.736419506	0.05
0	780	38.8	0.0495
0	780	38.8	0.0495
0	782	38.9	0.0499
0	784	39	0.05
0	786	39.1	0.05
0	788	39.2	0.05
0	789	39.235050382	0.05
0	790	39.3	0.05
0	792	39.4	0.05
0	794	39.5	0.05
0	796	39.6	0.05
0	798	39.7	0.05
0	799	39.763224577	0.05
0	800	39.8	0.05
0	802	39.9	0.05
0	804	40	0.05
0	806	40.1	0.05
0	807	40.157485315	0.05
0	808	40.2	0.0495
0	808	40.2	0.0495
0	810	40.3	0.0499
0	812	40.4	0.05
0	814	40.5	0.05
0	816	40.6	0.05
0	817	40.635133459	0.05
0	818	40.7	0.05
0	820	40.8	0.05
0	822	40.9	0.05
0	824	41	0.05
0	826	41.1	0.05
0	827	41.152383238	0.05
0	828	41.2	0.05
0	830	41.3	0.05
0	832	41.4	0.05
0	834	41.5	0.05
0	836	41.6	0.05
0	837	41.668971733	0.0495
0	837	41.668971733	0.0495
0	838	41.7	0.049624113068
0	840	41.8	0.05
0	842	41.9	0.05
0	844	42	0.05
0	846	42.1	0.05
0	848	42.2	0.05
0	849	42.291515137	0.05
0	850	42.3	0.05
0	852	42.4	0.05
0	854	42.5	0.05
0	856	42.6	0.05
0	858	42.7	0.05
0	860	42.756428350736	0.05
0	860	42.774096046	0.05
0	861	42.8	0.05
0	863	42.9	0.05
0	865	43	0.05
0	867	43.1	0.05
0	869	43.2	0.05
0	871	43.3	0.05
0	872	43.37250721	0.05
0	873	43.4	0.05
0	875	43.5	0.05
0	877	43.6	0.05
0	879	43.7	0.05
0	880	43.762556725	0.05
0	881	43.8	0.05
0	883	43.9	0.05
0	885	44	0.05
0	887	44.1	0.05
0	888	44.199946297	0.05
0	889	44.2	0.05
0	891	44.3	0.05
0	893	44.4	0.05
0	895	44.5	0.05
0	897	44.6	0.05
0	899	44.7	0.05
0	900	44.722541212	0.05
0	901	44.8	0.05
0	903	44.9	0.05
0	905	45	0.05
0	907	45.1	0.05
0	909	45.2	0.05
0	910	45.278193571	0.05
0	911	45.3	0.05
0	913	45.4	0.05
0	915	45.5	0.05
0	916	45.569695417	0.05
0	917	45.6	0.05
0	919	45.7	0.05
0	921	45.8	0.05
0	923	45.9	0.05
0	925	46	0.05
0	927	46.1	0.05
0	929	46.2	0.05
0	930	46.241790385	0.05
0	931	46.3	0.05
0	933	46.4	0.05
0	935	46.5	0.05
0	937	46.6	0.05
0	939	46.7	0.05
0	940	46.769988967	0.05
0	941	46.8	0.05
0	943	46.9	0.05
0	946	47	0.05
0	949	47.1	0.05
0	951	47.2	0.05
0	953	47.3	0.05
0	954	47.328250486	0.05
0	955	47.4	0.05
0	957	47.5	0.05
0	959	47.6	0.05
0	961	47.7	0.05
0	963	47.8	0.05
0	964	47.863012465	0.05
0	965	47.9	0.05
0	967	48	0.05
0	969	48.1	0.05
0	971	48.2	0.05
0	972	48.29752615	0.05
0	973	48.3	0.05
0	975	48.4	0.05
0	977	48.5	0.05
0	978	48.593167474	0.05
0	979	48.6	0.05
0	981	48.7	0.05
0	983	48.8	0.05
0	985	48.9	0.05
0	987	49	0.05
0	988	49.03997887	0.05
0	989	49.1	0.05
0	991	49.2	0.05
0	993	49.3	0.05
0	995	49.4	0.05
0	997	49.5	0.05
0	998	49.539632452	0.05
0	999	49.6	0.05
0	1001	49.7	0.05
0	1003	49.8	0.05
0	1005	49.9	0.05
0	1006	49.941753433	0.05
0	1007	50	0.05
0	1009	50.1	0.05
0	1011	50.2	0.05
0	1013	50.3	0.05
0	1015	50.4	0.05
0	1016	50.42791732	0.05
0	1017	50.5	0.05
0	1019	50.6	0.05
0	1022	50.7	0.05
0	1024	50.8	0.05
0	1025	50.894707741	0.05
0	1026	50.9	0.05
0	1028	51	0.05
0	1030	51.1	0.05
0	1032	51.2	0.05
0	1034	51.3	0.05
0	1034	51.372981475	0.05
0	1036	51.4	0.05
0	1038	51.5	0.05
0	1040	51.6	0.05
0	1042	51.7	0.05
0	1044	51.8	0.05
0	1046	51.9	0.05
0	1046	51.95778718	0.05
0	1048	52	0.05
0	1050	52.1	0.05
0	1052	52.2	0.05
0	1052	52.227035623	0.05
0	1054	52.3	0.05
0	1056	52.4	0.05
0	1058	52.5	0.05
0	1060	52.6	0.05
0	1060	52.658252446	0.05
0	1062	52.7	0.0495
0	1062	52.7	0.0495
0	1064	52.8	0.0495
0	1064	52.874309131	0.0495
0	1066	52.9	0.0495
0	1068	53	0.0495
0	1070	53.1	0.0495
0	1072	53.2	0.0495
0	1074	53.3	0.0495
0	1074	53.321980702	0.0495
0	1076	53.4	0.0495
0	1078	53.5	0.0495
0	1080	53.6	0.0495
0	1082	53.7	0.0495
0	1084	53.8	0.0495
0	1084	53.86280302	0.0495
0	1086	53.9	0.0495
0	1088	54	0.0495
0	1090	54.1	0.049005
0	1090	54.1	0.049005
0	1092	54.2	0.049005
0	1094	54.3	0.049005
0	1094	54.356308	0.049005
0	1096	54.4	0.049005
0	1098	54.5	0.049005
0	1100	54.6	0.049005
0	1100	54.644123953	0.049005
0	1102	54.7	0.049005
0	1104	54.8	0.049005
0	1106	54.9	0.049005
0	1108	55	0.049005
0	1109	55.09045675	0.049005
0	1110	55.1	0.049005
0	1112	55.2	0.049005
0	1114	55.3	0.049005
0	1116	55.4	0.049005
0	1118	55.5	0.04851495
0	1118	55.5	0.04851495
0	1118	55.568422363	0.04851495
0	1120	55.6	0.04851495
0	1122	55.7	0.04851495
0	1124	55.8	0.04851495
0	1126	55.9	0.04851495
0	1128	56	0.04851495
0	1128	56.008472155	0.04851495
0	1130	56.1	0.04851495
0	1132	56.2	0.04851495
0	1134	56.3	0.04851495
0	1136	56.4	0.04851495
0	1136	56.448316	0.04851495
0	1138	56.5	0.04851495
0	1140	56.6	0.04851495
0	1142	56.7	0.04851495
0	1143	56.769634267061	0.04851495
0	1145	56.869634267061	0.04851495
0	1147	56.969634267061	0.04851495
0	1148	56.988794011	0.04851495
0	1149	57.069634267061	0.04851495
0	1151	57.169634267061	0.04851495
0	1153	57.269634267061	0.04851495
0	1155	57.369634267061	0.04851495
0	1157	57.469634267061	0.04851495
0	1158	57.526875388	0.04851495
0	1159	57.569634267061	0.04851495
0	1161	57.669634267061	0.04851495
0	1163	57.769634267061	0.04851495
0	1165	57.869634267061	0.04851495
0	1167	57.969634267061	0.04851495
0	1168	58.057366819	0.04851495
0	1169	58.069634267061	0.04851495
0	1171	58.169634267061	0.04851495
0	1173	58.269634267061	0.04851495
0	1175	58.369634267061	0.04851495
0	1176	58.444415674	0.04851495
0	1177	58.469634267061	0.04851495
0	1179	58.569634267061	0.04851495
0	1181	58.669634267061	0.04851495
0	1182	58.72045711	0.04851495
0	1183	58.769634267061	0.04851495
0	1185	58.869634267061	0.04851495
0	1187	58.969634267061	0.04851495
0	1189	59.069634267061	0.04851495
0	1191	59.169634267061	0.04851495
0	1192	59.207771203	0.04851495
0	1193	59.269634267061	0.04851495
0	1195	59.369634267061	0.04851495
0	1197	59.469634267061	0.04851495
0	1197	59.471057428	0.04851495
0	1199	59.569634267061	0.04851495
0	1201	59.669634267061	0.04851495
0	1203	59.769634267061	0.04851495
0	1205	59.869634267061	0.04851495
0	1206	59.9026567	0.04851495
0	1207	59.969634267061	0.04851495
0	1209	60.069634267061	0.04851495
0	1211	60.169634267061	0.04851495
0	1213	60.269634267061	0.04851495
0	1215	60.369634267061	0.04851495
0	1216	60.426759607	0.04851495
0	1217	60.469634267061	0.04851495
0	1219	60.569634267061	0.04851495
0	1221	60.669634267061	0.04851495
0	1223	60.769634267061	0.04851495
0	1224	60.859322749	0.04851495
0	1225	60.869634267061	0.04851495
0	1227	60.969634267061	0.04851495
0	1229	61.069634267061	0.04851495
0	1231	61.169634267061	0.04851495
0	1232	61.259801503	0.04851495
0	1233	61.269634267061	0.04851495
0	1235	61.369634267061	0.04851495
0	1237	61.469634267061	0.04851495
0	1239	61.569634267061	0.04851495
0	1241	61.669634267061	0.04851495
0	1242	61.692169099	0.04851495
0	1243	61.769634267061	0.04851495
0	1245	61.869634267061	0.04851495
0	1247	61.969634267061	0.04851495
0	1249	62.069634267061	0.04851495
0	1250	62.100111772	0.04851495
0	1251	62.169634267061	0.04851495
0	1253	62.269634267061	0.04851495
0	1255	62.369634267061	0.04851495
0	1257	62.469634267061	0.04851495
0	1258	62.564774542	0.04851495
0	1259	62.569634267061	0.04851495
0	1261	62.669634267061	0.04851495
0	1263	62.769634267061	0.04851495
0	1265	62.869634267061	0.04851495
0	1268	62.969634267061	0.04851495
0	1270	63.069634267061	0.04851495
0	1270	63.082080139	0.04851495
0	1272	63.169634267061	0.04851495
0	1274	63.269634267061	0.04851495
0	1276	63.369634267061	0.04851495
0	1278	63.469634267061	0.04851495
0	1279	63.545540209	0.04851495
0	1280	63.569634267061	0.04851495
0	1282	63.669634267061	0.04851495
0	1284	63.769634267061	0.0480298005
0	1284	63.769634267061	0.0480298005
0	1286	63.869634267061	0.0480298005
0	1288	63.969634267061	0.0480298005
0	1289	63.988061149	0.0480298005
0	1290	64.069634267061	0.0480298005
0	1292	64.169634267061	0.0480298005
0	1294	64.269634267061	0.0480298005
0	1296	64.369634267061	0.0480298005
0	1298	64.469634267061	0.0480298005
0	1299	64.541275717	0.0480298005
0	1300	64.569634267061	0.0480298005
0	1302	64.669634267061	0.0480298005
0	1304	64.769634267061	0.0480298005
0	1306	64.869634267061	0.0480298005
0	1308	64.969634267061	0.0480298005
0	1310	65.069634267061	0.0480298005
0	1312	65.169634267061	0.0480298005
0	1313	65.21143642	0.047549502495
0	1313	65.21143642	0.047549502495
0	1314	65.269634267061	0.047549502495
0	1316	65.369634267061	0.047549502495
0	1318	65.469634267061	0.047549502495
0	1320	65.569634267061	0.047549502495
0	1322	65.669634267061	0.047549502495
0	1323	65.708789728	0.047549502495
0	1324	65.769634267061	0.047549502495
0	1326	65.869634267061	0.047549502495
0	1328	65.969634267061	0.047549502495
0	1330	66.069634267061	0.047549502495
0	1332	66.169634267061	0.047549502495
0	1334	66.269634267061	0.047549502495
0	1335	66.329656708	0.047549502495
0	1336	66.369634267061	0.047549502495
0	1338	66.469634267061	0.047549502495
0	1340	66.569634267061	0.047549502495
0	1342	66.669634267061	0.04707400747005
0	1342	66.669634267061	0.04707400747005
0	1344	66.769634267061	0.04707400747005
0	1346	66.869634267061	0.04707400747005
0	1348	66.969634267061	0.04707400747005
0	1349	66.995763937	0.04707400747005
0	1350	67.069634267061	0.04707400747005
0	1352	67.169634267061	0.04707400747005
0	1354	67.269634267061	0.04707400747005
0	1356	67.369634267061	0.04707400747005
0	1358	67.469634267061	0.04707400747005
0	1360	67.569634267061	0.04707400747005
0	1361	67.630975426	0.04707400747005
0	1362	67.669634267061	0.04707400747005
0	1364	67.769634267061	0.04707400747005
0	1366	67.869634267061	0.04707400747005
0	1368	67.969634267061	0.04707400747005
0	1370	68.069634267061	0.04707400747005
0	1371	68.095018366	0.04660326739535
0	1371	68.095018366	0.04660326739535
0	1372	68.169634267061	0.04660326739535
0	1374	68.269634267061	0.04660326739535
0	1376	68.369634267061	0.04660326739535
0	1378	68.469634267061	0.04660326739535
0	1380	68.569634267061	0.04660326739535
0	1380	68.572540957	0.04660326739535
0	1382	68.669634267061	0.04660326739535
0	1384	68.769634267061	0.04660326739535
0	1386	68.869634267061	0.04660326739535
0	1388	68.969634267061	0.04660326739535
0	1389	69.03713701	0.04660326739535
0	1390	69.069634267061	0.04660326739535
0	1392	69.169634267061	0.04660326739535
0	1394	69.269634267061	0.04660326739535
0	1396	69.369634267061	0.04660326739535
0	1398	69.469634267061	0.04660326739535
0	1399	69.524949511	0.046137234721396
0	1399	69.524949511	0.046137234721396
0	1400	69.569634267061	0.046137234721396
0	1402	69.669634267061	0.046137234721396
0	1404	69.769634267061	0.046137234721396
0	1406	69.869634267061	0.046137234721396
0	1407	69.969189076	0.046137234721396
0	1408	69.969634267061	0.046137234721396
0	1410	70.069634267061	0.046137234721396
0	1412	70.169634267061	0.046137234721396
0	1414	70.269634267061	0.046137234721396
0	1416	70.369634267061	0.046137234721396
0	1416	70.379857237	0.046137234721396
0	1418	70.469634267061	0.046137234721396
0	1420	70.569634267061	0.046137234721396
0	1422	70.669634267061	0.046137234721396
0	1422	70.674568405	0.046137234721396
0	1424	70.769634267061	0.046137234721396
0	1426	70.869634267061	0.045675862374182
0	1426	70.869634267061	0.045675862374182
0	1428	70.969634267061	0.045675862374182
0	1430	71.069634267061	0.045675862374182
0	1432	71.169634267061	0.045675862374182
0	1433	71.205621541	0.045675862374182
0	1434	71.269634267061	0.045675862374182
0	1436	71.369634267061	0.045675862374182
0	1438	71.469634267061	0.045675862374182
0	1440	71.569634267061	0.045675862374182
0	1442	71.669634267061	0.045675862374182
0	1443	71.71742758	0.045675862374182
0	1444	71.769634267061	0.045675862374182
0	1446	71.869634267061	0.045675862374182
0	1448	71.969634267061	0.045675862374182
0	1450	72.069634267061	0.045675862374182
0	1452	72.169634267061	0.045675862374182
0	1452	72.17908681	0.045675862374182
0	1454	72.269634267061	0.04521910375044
0	1454	72.269634267061	0.04521910375044
0	1456	72.369634267061	0.04521910375044
0	1458	72.469634267061	0.04521910375044
0	1460	72.569634267061	0.04521910375044
0	1462	72.669634267061	0.04521910375044
0	1463	72.694437523	0.04521910375044
0	1464	72.769634267061	0.04521910375044
0	1466	72.869634267061	0.04521910375044
0	1468	72.969634267061	0.04521910375044
0	1470	73.069634267061	0.04521910375044
0	1472	73.169634267061	0.04521910375044
0	1474	73.269634267061	0.04521910375044
0	1475	73.323156838	0.04521910375044
0	1476	73.369634267061	0.04521910375044
0	1478	73.469634267061	0.04521910375044
0	1480	73.569634267061	0.04521910375044
0	1482	73.669634267061	0.04521910375044
0	1484	73.769634267061	0.044766912712936
0	1484	73.769634267061	0.044766912712936
0	1486	73.869634267061	0.044766912712936
0	1487	73.918642951	0.044766912712936
0	1488	73.969634267061	0.044766912712936
0	1490	74.069634267061	0.044766912712936
0	1492	74.169634267061	0.044766912712936
0	1493	74.217384796	0.044766912712936
0	1494	74.269634267061	0.044766912712936
0	1496	74.369634267061	0.044766912712936
0	1498	74.469634267061	0.044766912712936
0	1500	74.569634267061	0.044766912712936
0	1501	74.625297616	0.044766912712936
0	1502	74.669634267061	0.044766912712936
0	1504	74.769634267061	0.044766912712936
0	1506	74.869634267061	0.044766912712936
0	1507	74.89239178	0.044766912712936
0	1508	74.969634267061	0.044766912712936
0	1510	75.069634267061	0.044319243585806
0	1510	75.069634267061	0.044319243585806
0	1512	75.169634267061	0.044319243585806
0	1514	75.269634267061	0.044319243585806
0	1516	75.369634267061	0.044319243585806
0	1518	75.469634267061	0.044319243585806
0	1519	75.520097188	0.044319243585806
0	1520	75.569634267061	0.044319243585806
0	1522	75.669634267061	0.044319243585806
0	1524	75.769634267061	0.044319243585806
0	1526	75.869634267061	0.044319243585806
0	1528	75.969634267061	0.044319243585806
0	1529	75.992979229	0.044319243585806
0	1530	76.069634267061	0.044319243585806
0	1532	76.169634267061	0.044319243585806
0	1534	76.269634267061	0.044319243585806
0	1536	76.369634267061	0.044319243585806
0	1538	76.469634267061	0.044319243585806
0	1539	76.539019249	0.043876051149948
0	1539	76.539019249	0.043876051149948
0	1540	76.569634267061	0.043876051149948
0	1542	76.669634267061	0.043876051149948
0	1544	76.769634267061	0.043876051149948
0	1546	76.869634267061	0.043876051149948
0	1548	76.969634267061	0.043876051149948
0	1550	77.069634267061	0.043876051149948
0	1551	77.091128212	0.043876051149948
0	1552	77.169634267061	0.043876051149948
0	1554	77.269634267061	0.043876051149948
0	1556	77.369634267061	0.043876051149948
0	1558	77.469634267061	0.043876051149948
0	1560	77.569634267061	0.043876051149948
0	1561	77.617170934	0.043876051149948
0	1562	77.669634267061	0.043876051149948
0	1564	77.769634267061	0.043876051149948
0	1566	77.869634267061	0.043876051149948
0	1568	77.969634267061	0.043437290638449
0	1568	77.969634267061	0.043437290638449
0	1570	78.069634267061	0.043437290638449
0	1572	78.169634267061	0.043437290638449
0	1573	78.26009713	0.043437290638449
0	1574	78.269634267061	0.043437290638449
0	1576	78.369634267061	0.043437290638449
0	1578	78.469634267061	0.043437290638449
0	1579	78.554006026	0.043437290638449
0	1580	78.569634267061	0.043437290638449
0	1582	78.669634267061	0.043437290638449
0	1584	78.769634267061	0.043437290638449
0	1586	78.869634267061	0.043437290638449
0	1588	78.969634267061	0.043437290638449
0	1589	79.062459598	0.043437290638449
0	1590	79.069634267061	0.043437290638449
0	1592	79.169634267061	0.043437290638449
0	1594	79.269634267061	0.043437290638449
0	1596	79.369634267061	0.043002917732064
0	1596	79.369634267061	0.043002917732064
0	1598	79.469634267061	0.043002917732064
0	1600	79.569634267061	0.043002917732064
0	1602	79.669634267061	0.043002917732064
0	1604	79.769634267061	0.043002917732064
0	1604	79.777566076	0.043002917732064
0	1606	79.869634267061	0.043002917732064
0	1608	79.969634267061	0.043002917732064
0	1610	80.069634267061	0.043002917732064
0	1612	80.169634267061	0.043002917732064
0	1614	80.269634267061	0.043002917732064
0	1616	80.369634267061	0.043002917732064
0	1618	80.469634267061	0.043002917732064
0	1619	80.523072775	0.043002917732064
0	1620	80.569634267061	0.043002917732064
0	1622	80.669634267061	0.043002917732064
0	1624	80.769634267061	0.043002917732064
0	1626	80.869634267061	0.042572888554744
0	1626	80.869634267061	0.042572888554744
0	1628	80.969634267061	0.042572888554744
0	1630	81.069634267061	0.042572888554744
0	1632	81.169634267061	0.042572888554744
0	1634	81.269634267061	0.042572888554744
0	1634	81.27385294	0.042572888554744
0	1636	81.369634267061	0.042572888554744
0	1638	81.469634267061	0.042572888554744
0	1640	81.569634267061	0.042572888554744
0	1642	81.669634267061	0.042572888554744
0	1644	81.769634267061	0.042572888554744
0	1646	81.869634267061	0.042572888554744
0	1648	81.969634267061	0.042572888554744
0	1649	81.999321979	0.042572888554744
0	1650	82.069634267061	0.042572888554744
0	1652	82.169634267061	0.042572888554744
0	1654	82.269634267061	0.042572888554744
0	1656	82.369634267061	0.042147159669196
0	1656	82.369634267061	0.042147159669196
0	1658	82.469634267061	0.042147159669196
0	1660	82.569634267061	0.042147159669196
0	1661	82.655007502	0.042147159669196
0	1662	82.669634267061	0.042147159669196
0	1664	82.769634267061	0.042147159669196
0	1666	82.869634267061	0.042147159669196
0	1668	82.969634267061	0.042147159669196
0	1670	83.069634267061	0.042147159669196
0	1671	83.119326277	0.042147159669196
0	1672	83.169634267061	0.042147159669196
0	1674	83.269634267061	0.042147159669196
0	1676	83.369634267061	0.042147159669196
0	1678	83.469634267061	0.042147159669196
0	1680	83.569634267061	0.042147159669196
0	1680	83.58322594	0.042147159669196
0	1682	83.669634267061	0.042147159669196
0	1684	83.769634267061	0.041725688072504
0	1684	83.769634267061	0.041725688072504
0	1686	83.869634267061	0.041725688072504
0	1688	83.969634267061	0.041725688072504
0	1689	84.005450839	0.041725688072504
0	1690	84.069634267061	0.041725688072504
0	1692	84.169634267061	0.041725688072504
0	1694	84.269634267061	0.041725688072504
0	1696	84.369634267061	0.041725688072504
0	1697	84.450214795	0.041725688072504
0	1698	84.469634267061	0.041725688072504
0	1700	84.569634267061	0.041725688072504
0	1702	84.669634267061	0.041725688072504
0	1704	84.769634267061	0.041725688072504
0	1706	84.869634267061	0.041725688072504
0	1708	84.969634267061	0.041725688072504
0	1708	84.976756651	0.041725688072504
0	1710	85.069634267061	0.041725688072504
0	1712	85.169634267061	0.041308431191779
0	1712	85.169634267061	0.041308431191779
0	1713	85.262892322	0.041308431191779
0	1714	85.269634267061	0.041308431191779
0	1716	85.369634267061	0.041308431191779
0	1718	85.469634267061	0.041308431191779
0	1720	85.569634267061	0.041308431191779
0	1722	85.669634267061	0.041308431191779
0	1724	85.769634267061	0.041308431191779
0	1725	85.816705558	0.041308431191779
0	1726	85.869634267061	0.041308431191779
0	1728	85.969634267061	0.041308431191779
0	1730	86.069634267061	0.041308431191779
0	1731	86.117053117	0.041308431191779
0	1732	86.169634267061	0.041308431191779
0	1734	86.269634267061	0.041308431191779
0	1736	86.369634267061	0.041308431191779
0	1738	86.469634267061	0.041308431191779
0	1741	86.569634267061	0.041308431191779
0	1743	86.669634267061	0.041308431191779
0	1743	86.678885395	0.041308431191779
0	1746	86.769634267061	0.041308431191779
0	1748	86.869634267061	0.041308431191779
0	1750	86.969634267061	0.041308431191779
0	1752	87.069634267061	0.041308431191779
0	1754	87.169634267061	0.041308431191779
0	1755	87.252546403	0.041308431191779
0	1756	87.269634267061	0.041308431191779
0	1758	87.369634267061	0.041308431191779
0	1760	87.469634267061	0.041308431191779
0	1762	87.569634267061	0.041308431191779
0	1764	87.669634267061	0.041308431191779
0	1766	87.769634267061	0.041308431191779
0	1768	87.869634267061	0.041308431191779
0	1769	87.909870907	0.040895346879862
0	1769	87.909870907	0.040895346879862
0	1770	87.969634267061	0.040895346879862
0	1772	88.069634267061	0.040895346879862
0	1774	88.169634267061	0.040895346879862
0	1776	88.269634267061	0.040895346879862
0	1778	88.369634267061	0.040895346879862
0	1780	88.469634267061	0.040895346879862
0	1782	88.569634267061	0.040895346879862
0	1783	88.596431107	0.040895346879862
0	1784	88.669634267061	0.040895346879862
0	1786	88.769634267061	0.040895346879862
0	1788	88.869634267061	0.040895346879862
0	1790	88.969634267061	0.040895346879862
0	1791	89.0429575	0.040895346879862
0	1792	89.069634267061	0.040895346879862
0	1794	89.169634267061	0.040895346879862
0	1796	89.269634267061	0.040895346879862
0	1798	89.369634267061	0.040486393411063
0	1798	89.369634267061	0.040486393411063
0	1800	89.469634267061	0.040486393411063
0	1801	89.554218055	0.040486393411063
0	1802	89.569634267061	0.040486393411063
0	1804	89.669634267061	0.040486393411063
0	1806	89.769634267061	0.040486393411063
0	1808	89.869634267061	0.040486393411063
0	1810	89.969634267061	0.040486393411063
0	1811	90.013112011	0.040486393411063
0	1812	90.069634267061	0.040486393411063
0	1814	90.169634267061	0.040486393411063
0	1816	90.269634267061	0.040486393411063
0	1818	90.369634267061	0.040486393411063
0	1820	90.469634267061	0.040486393411063
0	1821	90.509837899	0.040486393411063
0	1822	90.569634267061	0.040486393411063
0	1824	90.669634267061	0.040486393411063
0	1826	90.769634267061	0.040081529476952
0	1826	90.769634267061	0.040081529476952
0	1828	90.869634267061	0.040081529476952
0	1830	90.969634267061	0.040081529476952
0	1831	91.012737214	0.040081529476952
0	1832	91.069634267061	0.040081529476952
0	1834	91.169634267061	0.040081529476952
0	1836	91.269634267061	0.040081529476952
0	1838	91.369634267061	0.040081529476952
0	1839	91.433110192	0.040081529476952
0	1840	91.469634267061	0.040081529476952
0	1842	91.569634267061	0.040081529476952
0	1844	91.669634267061	0.040081529476952
0	1846	91.769634267061	0.040081529476952
0	1848	91.869634267061	0.040081529476952
0	1849	91.940031976	0.040081529476952
0	1850	91.969634267061	0.040081529476952
0	1852	92.069634267061	0.040081529476952
0	1854	92.169634267061	0.039680714182183
0	1854	92.169634267061	0.039680714182183
0	1856	92.269634267061	0.039680714182183
0	1858	92.369634267061	0.039680714182183
0	1859	92.430959197	0.039680714182183
0	1860	92.469634267061	0.039680714182183
0	1862	92.569634267061	0.039680714182183
0	1864	92.669634267061	0.039680714182183
0	1865	92.729735872	0.039680714182183
0	1866	92.769634267061	0.039680714182183
0	1868	92.869634267061	0.039680714182183
0	1870	92.969634267061	0.039680714182183
0	1872	93.069634267061	0.039680714182183
0	1874	93.169634267061	0.039680714182183
0	1875	93.227105416	0.039680714182183
0	1876	93.269634267061	0.039680714182183
0	1878	93.369634267061	0.039680714182183
0	1880	93.469634267061	0.039680714182183
0	1882	93.569634267061	0.039283907040361
0	1882	93.569634267061	0.039283907040361
0	1883	93.627034888	0.039283907040361
0	1884	93.669634267061	0.039283907040361
0	1886	93.769634267061	0.039283907040361
0	1888	93.869634267061	0.039283907040361
0	1890	93.969634267061	0.039283907040361
0	1892	94.069634267061	0.039283907040361
0	1894	94.169634267061	0.039283907040361
0	1895	94.252477867	0.039283907040361
0	1896	94.269634267061	0.039283907040361
0	1898	94.369634267061	0.039283907040361
0	1900	94.469634267061	0.039283907040361
0	1902	94.569634267061	0.039283907040361
0	1904	94.669634267061	0.039283907040361
0	1906	94.769634267061	0.039283907040361
0	1908	94.869634267061	0.039283907040361
0	1910	94.969634267061	0.039283907040361
0	1911	95.010443134	0.038891067969957
0	1911	95.010443134	0.038891067969957
0	1912	95.069634267061	0.038891067969957
0	1914	95.169634267061	0.038891067969957
0	1916	95.269634267061	0.038891067969957
0	1918	95.369634267061	0.038891067969957
0	1920	95.469634267061	0.038891067969957
0	1921	95.528878627	0.038891067969957
0	1922	95.569634267061	0.038891067969957
0	1924	95.669634267061	0.038891067969957
0	1926	95.769634267061	0.038891067969957
0	1928	95.869634267061	0.038891067969957
0	1930	95.969634267061	0.038891067969957
0	1932	96.069634267061	0.038891067969957
0	1934	96.169634267061	0.038891067969957
0	1935	96.222914947	0.038891067969957
0	1936	96.269634267061	0.038891067969957
0	1938	96.369634267061	0.038891067969957
0	1940	96.469634267061	0.038502157290258
0	1940	96.469634267061	0.038502157290258
0	1942	96.569634267061	0.038502157290258
0	1944	96.669634267061	0.038502157290258
0	1946	96.769634267061	0.038502157290258
0	1947	96.787496464	0.038502157290258
0	1948	96.869634267061	0.038502157290258
0	1950	96.969634267061	0.038502157290258
0	1952	97.069634267061	0.038502157290258
0	1954	97.169634267061	0.038502157290258
0	1956	97.269634267061	0.038502157290258
0	1957	97.362582166	0.038502157290258
0	1958	97.369634267061	0.038502157290258
0	1960	97.469634267061	0.038502157290258
0	1962	97.569634267061	0.038502157290258
0	1964	97.669634267061	0.038502157290258
0	1966	97.769634267061	0.038502157290258
0	1968	97.869634267061	0.038502157290258
0	1970	97.969634267061	0.038117135717355
0	1970	97.969634267061	0.038117135717355
0	1972	98.069634267061	0.038117135717355
0	1973	98.101127722	0.038117135717355
0	1974	98.169634267061	0.038117135717355
0	1976	98.269634267061	0.038117135717355
0	1978	98.369634267061	0.038117135717355
0	1980	98.469634267061	0.038117135717355
0	1982	98.569634267061	0.038117135717355
0	1983	98.666712904	0.038117135717355
0	1984	98.669634267061	0.038117135717355
0	1986	98.769634267061	0.038117135717355
0	1988	98.869634267061	0.038117135717355
0	1990	98.969634267061	0.038117135717355
0	1992	99.069634267061	0.038117135717355
0	1994	99.169634267061	0.038117135717355
0	1996	99.269634267061	0.038117135717355
0	1997	99.318615547	0.038117135717355
0	1998	99.369634267061	0.037735964360182
0	1998	99.369634267061	0.037735964360182
0	2000	99.469634267061	0.037735964360182
0	2002	99.569634267061	0.037735964360182
0	2004	99.669634267061	0.037735964360182
0	2006	99.769634267061	0.037735964360182
0	2008	99.869634267061	0.037735964360182
0	2009	99.959677417	0.037735964360182
0	2010	99.969634267061	0.037735964360182
0	2012	100.069634267061	0.037735964360182
0	2014	100.169634267061	0.037735964360182
0	2016	100.269634267061	0.037735964360182
0	2018	100.369634267061	0.037735964360182
0	2020	100.469634267061	0.037735964360182
0	2021	100.554929455	0.037735964360182
0	2022	100.569634267061	0.037735964360182
0	2024	100.669634267061	0.037735964360182
0	2026	100.769634267061	0.037735964360182
0	2028	100.869634267061	0.03735860471658
0	2028	100.869634267061	0.03735860471658
0	2030	100.969634267061	0.03735860471658
0	2032	101.069634267061	0.03735860471658
0	2034	101.169634267061	0.03735860471658
0	2036	101.269634267061	0.03735860471658
0	2037	101.305848865	0.03735860471658
0	2038	101.369634267061	0.03735860471658
0	2040	101.469634267061	0.03735860471658
0	2042	101.569634267061	0.03735860471658
0	2044	101.669634267061	0.03735860471658
0	2046	101.769634267061	0.03735860471658
0	2047	101.796426295	0.03735860471658
0	2048	101.869634267061	0.03735860471658
0	2050	101.969634267061	0.03735860471658
0	2052	102.069634267061	0.03735860471658
0	2054	102.169634267061	0.03735860471658
0	2055	102.252142726	0.03735860471658
0	2056	102.269634267061	0.036985018669414
0	2056	102.269634267061	0.036985018669414
0	2058	102.369634267061	0.036985018669414
0	2060	102.469634267061	0.036985018669414
0	2061	102.544965937	0.036985018669414
0	2062	102.569634267061	0.036985018669414
0	2064	102.669634267061	0.036985018669414
0	2066	102.769634267061	0.036985018669414
0	2068	102.869634267061	0.036985018669414
0	2070	102.969634267061	0.036985018669414
0	2071	103.004166568	0.036985018669414
0	2072	103.069634267061	0.036985018669414
0	2074	103.169634267061	0.036985018669414
0	2076	103.269634267061	0.036985018669414
0	2078	103.369634267061	0.036985018669414
0	2080	103.469634267061	0.036985018669414
0	2081	103.516837966	0.036985018669414
0	2082	103.569634267061	0.036985018669414
0	2084	103.669634267061	0.03661516848272
0	2084	103.669634267061	0.03661516848272
0	2086	103.769634267061	0.03661516848272
0	2088	103.869634267061	0.03661516848272
0	2090	103.969634267061	0.03661516848272
0	2092	104.069634267061	0.03661516848272
0	2093	104.092816921	0.03661516848272
0	2094	104.169634267061	0.03661516848272
0	2096	104.269634267061	0.03661516848272
0	2098	104.369634267061	0.03661516848272
0	2100	104.469634267061	0.03661516848272
0	2102	104.569634267061	0.03661516848272
0	2103	104.649704887	0.03661516848272
0	2104	104.669634267061	0.03661516848272
0	2106	104.769634267061	0.03661516848272
0	2108	104.869634267061	0.03661516848272
0	2110	104.969634267061	0.03661516848272
0	2112	105.069634267061	0.03661516848272
0	2114	105.169634267061	0.036249016797893
0	2114	105.169634267061	0.036249016797893
0	2116	105.269634267061	0.036249016797893
0	2117	105.30187705	0.036249016797893
0	2118	105.369634267061	0.036249016797893
0	2120	105.469634267061	0.036249016797893
0	2122	105.569634267061	0.036249016797893
0	2124	105.669634267061	0.036249016797893
0	2126	105.769634267061	0.036249016797893
0	2128	105.869634267061	0.036249016797893
0	2129	105.908088937	0.036249016797893
0	2130	105.969634267061	0.036249016797893
0	2132	106.069634267061	0.036249016797893
0	2134	106.169634267061	0.036249016797893
0	2136	106.269634267061	0.036249016797893
0	2138	106.369634267061	0.036249016797893
0	2140	106.469634267061	0.036249016797893
0	2141	106.561901176	0.036249016797893
0	2142	106.569634267061	0.035886526629914
0	2142	106.569634267061	0.035886526629914
0	2144	106.669634267061	0.035886526629914
0	2147	106.743532891532	0.035886526629914
0	2149	106.843532891532	0.035886526629914
0	2151	106.943532891532	0.035886526629914
0	2153	107.043532891532	0.035886526629914
0	2153	107.110274425	0.035886526629914
0	2155	107.143532891532	0.035886526629914
0	2157	107.243532891532	0.035886526629914
0	2159	107.343532891532	0.035886526629914
0	2161	107.443532891532	0.035886526629914
0	2161	107.51288428	0.035886526629914
0	2163	107.543532891532	0.035886526629914
0	2165	107.643532891532	0.035886526629914
0	2166	107.728341049	0.035886526629914
0	2167	107.743532891532	0.035886526629914
0	2169	107.843532891532	0.035886526629914
0	2171	107.943532891532	0.035886526629914
0	2173	108.043532891532	0.035886526629914
0	2175	108.143532891532	0.035886526629914
0	2175	108.163378597	0.035886526629914
0	2177	108.243532891532	0.035886526629914
0	2179	108.343532891532	0.035886526629914
0	2181	108.443532891532	0.035886526629914
0	2183	108.543532891532	0.035886526629914
0	2185	108.643532891532	0.035886526629914
0	2186	108.73352413	0.035886526629914
0	2187	108.743532891532	0.035886526629914
0	2189	108.843532891532	0.035886526629914
0	2191	108.943532891532	0.035886526629914
0	2193	109.043532891532	0.035886526629914
0	2195	109.143532891532	0.035886526629914
0	2197	109.243532891532	0.035886526629914
0	2199	109.343532891532	0.035886526629914
0	2199	109.375506862	0.035527661363615
0	2199	109.375506862	0.035527661363615
0	2201	109.443532891532	0.035527661363615
0	2203	109.543532891532	0.035527661363615
0	2205	109.643532891532	0.035527661363615
0	2207	109.743532891532	0.035527661363615
0	2209	109.843532891532	0.035527661363615
0	2211	109.943532891532	0.035527661363615
0	2211	109.977361138	0.035527661363615
0	2213	110.043532891532	0.035527661363615
0	2215	110.143532891532	0.035527661363615
0	2217	110.243532891532	0.035527661363615
0	2219	110.343532891532	0.035527661363615
0	2221	110.443532891532	0.035527661363615
0	2223	110.543532891532	0.035527661363615
0	2223	110.559360496	0.035527661363615
0	2225	110.643532891532	0.035527661363615
0	2227	110.743532891532	0.035527661363615
0	2229	110.843532891532	0.035527661363615
0	2231	110.943532891532	0.035527661363615
0	2232	111.040076782	0.035527661363615
0	2233	111.043532891532	0.035527661363615
0	2235	111.143532891532	0.035527661363615
0	2237	111.243532891532	0.035527661363615
0	2239	111.343532891532	0.035527661363615
0	2241	111.443532891532	0.035527661363615
0	2243	111.543532891532	0.035527661363615
0	2245	111.643532891532	0.035527661363615
0	2245	111.673157107	0.035527661363615
0	2247	111.743532891532	0.035527661363615
0	2249	111.843532891532	0.035527661363615
0	2251	111.943532891532	0.035527661363615
0	2253	112.043532891532	0.035527661363615
0	2255	112.143532891532	0.035527661363615
0	2257	112.243532891532	0.035527661363615
0	2257	112.278422317	0.035172384749978
0	2257	112.278422317	0.035172384749978
0	2259	112.343532891532	0.035172384749978
0	2260	112.378136885691	0.035172384749978
0	2262	112.478136885691	0.035172384749978
0	2264	112.578136885691	0.035172384749978
0	2266	112.678136885691	0.035172384749978
0	2268	112.778136885691	0.035172384749978
0	2270	112.878136885691	0.035172384749978
0	2272	112.978136885691	0.035172384749978
0	2272	112.990900105	0.035172384749978
0	2274	113.078136885691	0.035172384749978
0	2276	113.178136885691	0.035172384749978
0	2278	113.278136885691	0.035172384749978
0	2280	113.378136885691	0.035172384749978
0	2281	113.447810854	0.035172384749978
0	2282	113.478136885691	0.035172384749978
0	2284	113.578136885691	0.035172384749978
0	2286	113.678136885691	0.034820660902479
0	2286	113.678136885691	0.034820660902479
0	2288	113.778136885691	0.034820660902479
0	2290	113.878136885691	0.034820660902479
0	2290	113.890226209	0.034820660902479
0	2292	113.978136885691	0.034820660902479
0	2294	114.078136885691	0.034820660902479
0	2296	114.178136885691	0.034820660902479
0	2298	114.278136885691	0.034820660902479
0	2299	114.330617446	0.034820660902479
0	2300	114.378136885691	0.034820660902479
0	2302	114.478136885691	0.034820660902479
0	2303	114.566450401	0.034820660902479
0	2304	114.578136885691	0.034820660902479
0	2306	114.678136885691	0.034820660902479
0	2308	114.778136885691	0.034820660902479
0	2310	114.878136885691	0.034820660902479
0	2312	114.978136885691	0.034820660902479
0	2314	115.078136885691	0.034472454293454
0	2314	115.078136885691	0.034472454293454
0	2315	115.100400913	0.034472454293454
0	2316	115.178136885691	0.034472454293454
0	2318	115.278136885691	0.034472454293454
0	2320	115.378136885691	0.034472454293454
0	2322	115.478136885691	0.034472454293454
0	2323	115.564355686	0.034472454293454
0	2324	115.578136885691	0.034472454293454
0	2326	115.678136885691	0.034472454293454
0	2328	115.778136885691	0.034472454293454
0	2329	115.859510395	0.034472454293454
0	2330	115.878136885691	0.034472454293454
0	2332	115.978136885691	0.034472454293454
0	2334	116.078136885691	0.034472454293454
0	2335	116.144213734	0.034472454293454
0	2336	116.178136885691	0.034472454293454
0	2338	116.278136885691	0.034472454293454
0	2340	116.378136885691	0.034127729750519
0	2340	116.378136885691	0.034127729750519
0	2342	116.478136885691	0.034127729750519
0	2344	116.578136885691	0.034127729750519
0	2346	116.678136885691	0.034127729750519
0	2346	116.697173671	0.034127729750519
0	2348	116.778136885691	0.034127729750519
0	2350	116.878136885691	0.034127729750519
0	2352	116.978136885691	0.034127729750519
0	2354	117.078136885691	0.034127729750519
0	2355	117.148469149	0.034127729750519
0	2356	117.178136885691	0.034127729750519
0	2358	117.278136885691	0.034127729750519
0	2360	117.378136885691	0.034127729750519
0	2361	117.44046526	0.034127729750519
0	2362	117.478136885691	0.034127729750519
0	2364	117.578136885691	0.034127729750519
0	2366	117.678136885691	0.034127729750519
0	2368	117.778136885691	0.033786452453014
0	2368	117.778136885691	0.033786452453014
0	2370	117.878136885691	0.033786452453014
0	2371	117.977712031	0.033786452453014
0	2372	117.978136885691	0.033786452453014
0	2374	118.078136885691	0.033786452453014
0	2376	118.178136885691	0.033786452453014
0	2378	118.278136885691	0.033786452453014
0	2380	118.378136885691	0.033786452453014
0	2382	118.478136885691	0.033786452453014
0	2384	118.578136885691	0.033786452453014
0	2386	118.678136885691	0.033786452453014
0	2386	118.690691215	0.033786452453014
0	2388	118.778136885691	0.033786452453014
0	2390	118.863968212966	0.033786452453014
0	2392	118.963968212966	0.033786452453014
0	2394	119.063968212966	0.033786452453014
0	2396	119.163968212966	0.033786452453014
0	2398	119.263968212966	0.033448587928484
0	2398	119.263968212966	0.033448587928484
0	2399	119.307524368	0.033448587928484
0	2400	119.363968212966	0.033448587928484
0	2402	119.463968212966	0.033448587928484
0	2404	119.563968212966	0.033448587928484
0	2406	119.663968212966	0.033448587928484
0	2408	119.763968212966	0.033448587928484
0	2410	119.863968212966	0.033448587928484
0	2411	119.913426451	0.033448587928484
0	2412	119.963968212966	0.033448587928484
0	2414	120.063968212966	0.033448587928484
0	2416	120.163968212966	0.033448587928484
0	2418	120.263968212966	0.033448587928484
0	2420	120.363968212966	0.033448587928484
0	2422	120.463968212966	0.033448587928484
0	2422	120.478676803	0.033448587928484
0	2424	120.563968212966	0.033448587928484
0	2426	120.663968212966	0.033114102049199
0	2426	120.663968212966	0.033114102049199
0	2428	120.763968212966	0.033114102049199
0	2430	120.863968212966	0.033114102049199
0	2430	120.88856011	0.033114102049199
0	2432	120.963968212966	0.033114102049199
0	2434	121.063968212966	0.033114102049199
0	2436	121.163968212966	0.033114102049199
0	2436	121.166575231	0.033114102049199
0	2438	121.263968212966	0.033114102049199
0	2440	121.363968212966	0.033114102049199
0	2442	121.463968212966	0.033114102049199
0	2444	121.563968212966	0.033114102049199
0	2446	121.663968212966	0.033114102049199
0	2446	121.673539597	0.033114102049199
0	2448	121.763968212966	0.033114102049199
0	2450	121.863968212966	0.033114102049199
0	2452	121.963968212966	0.033114102049199
0	2454	122.063968212966	0.032782961028707
0	2454	122.063968212966	0.032782961028707
0	2455	122.105963545	0.032782961028707
0	2456	122.163968212966	0.032782961028707
0	2458	122.263968212966	0.032782961028707
0	2460	122.363968212966	0.032782961028707
0	2462	122.463968212966	0.032782961028707
0	2464	122.563968212966	0.032782961028707
0	2465	122.640436672	0.032782961028707
0	2466	122.663968212966	0.032782961028707
0	2468	122.763968212966	0.032782961028707
0	2470	122.863968212966	0.032782961028707
0	2472	122.963968212966	0.032782961028707
0	2474	123.063968212966	0.032782961028707
0	2475	123.102948043	0.032782961028707
0	2476	123.163968212966	0.032782961028707
0	2478	123.263968212966	0.032782961028707
0	2480	123.363968212966	0.032782961028707
0	2482	123.463968212966	0.03245513141842
0	2482	123.463968212966	0.03245513141842
0	2483	123.524513431	0.03245513141842
0	2484	123.563968212966	0.03245513141842
0	2486	123.663968212966	0.03245513141842
0	2487	123.760119316	0.03245513141842
0	2488	123.763968212966	0.03245513141842
0	2490	123.863968212966	0.03245513141842
0	2492	123.963968212966	0.03245513141842
0	2494	124.063968212966	0.03245513141842
0	2496	124.163968212966	0.03245513141842
0	2498	124.263968212966	0.03245513141842
0	2499	124.284344533	0.03245513141842
0	2500	124.363968212966	0.03245513141842
0	2502	124.463968212966	0.03245513141842
0	2503	124.464467670328	0.03245513141842
0	2505	124.564467670328	0.03245513141842
0	2507	124.664467670328	0.03245513141842
0	2509	124.764467670328	0.03245513141842
0	2510	124.835368513	0.03245513141842
0	2511	124.864467670328	0.03245513141842
0	2513	124.964467670328	0.03245513141842
0	2515	125.022649107223	0.03245513141842
0	2516	125.033866252618	0.0325
0	2517	125.064467670328	0.03262240567084
0	2519	125.158866252618	0.033
0	2520	125.164467670328	0.03302240567084
0	2522	125.264467670328	0.03342240567084
0	2524	125.283866252618	0.0335
0	2524	125.351534239	0.033770671945528
0	2525	125.364467670328	0.03382240567084
0	2527	125.408866252618	0.034
0	2528	125.464467670328	0.03422240567084
0	2530	125.533866252618	0.0345
0	2531	125.564467670328	0.03462240567084
0	2533	125.658866252618	0.035
0	2534	125.664467670328	0.03502240567084
0	2536	125.764467670328	0.03542240567084
0	2538	125.783866252618	0.0355
0	2539	125.864467670328	0.03582240567084
0	2539	125.870075071	0.035486386920793
0	2539	125.870075071	0.035486386920793
0	2541	125.908866252618	0.036
0	2542	125.964467670328	0.03622240567084
0	2544	126.033866252618	0.0365
0	2545	126.064467670328	0.03662240567084
0	2547	126.158866252618	0.037
0	2548	126.164467670328	0.03702240567084
0	2550	126.264467670328	0.03742240567084
0	2552	126.283866252618	0.0375
0	2552	126.34017961	0.037725253429528
0	2553	126.364467670328	0.03782240567084
0	2555	126.408866252618	0.038
0	2556	126.464467670328	0.03822240567084
0	2558	126.533866252618	0.0385
0	2559	126.564467670328	0.03862240567084
0	2560	126.630888103	0.038888087401528
0	2561	126.658866252618	0.039
0	2562	126.664467670328	0.03902240567084
0	2564	126.764467670328	0.03942240567084
0	2566	126.783866252618	0.0395
0	2567	126.864467670328	0.03982240567084
0	2569	126.908866252618	0.04
0	2570	126.964467670328	0.04022240567084
0	2572	127.033866252618	0.0405
0	2572	127.053697969	0.040579326865528
0	2573	127.064467670328	0.04062240567084
0	2575	127.158866252618	0.041
0	2576	127.164467670328	0.04102240567084
0	2578	127.264467670328	0.04142240567084
0	2580	127.283866252618	0.0415
0	2581	127.364467670328	0.04182240567084
0	2583	127.408866252618	0.042
0	2584	127.464467670328	0.04222240567084
0	2586	127.533866252618	0.0425
0	2586	127.54049869	0.042526529749528
0	2587	127.564467670328	0.04262240567084
0	2589	127.658866252618	0.043
0	2590	127.664467670328	0.04302240567084
0	2592	127.764467670328	0.04342240567084
0	2594	127.783866252618	0.0435
0	2594	127.839881326	0.043724060293528
0	2595	127.864467670328	0.04382240567084
0	2597	127.908866252618	0.044
0	2598	127.964467670328	0.04422240567084
0	2600	128.033866252618	0.0445
0	2601	128.064467670328	0.04462240567084
0	2603	128.158866252618	0.045
0	2604	128.164467670328	0.04502240567084
0	2606	128.264467670328	0.04542240567084
0	2608	128.283866252618	0.0455
0	2608	128.340284755	0.045725674009528
0	2609	128.364467670328	0.04582240567084
0	2612	128.408866252618	0.046
0	2613	128.464467670328	0.04622240567084
0	2615	128.533866252618	0.0465
0	2616	128.564467670328	0.04662240567084
0	2618	128.658866252618	0.047
0	2619	128.664467670328	0.04702240567084
0	2621	128.764467670328	0.04742240567084
0	2622	128.783866252618	0.0475
0	2624	128.864467670328	0.04782240567084
0	2626	128.908866252618	0.048
0	2626	128.941750633	0.048131537521528
0	2627	128.964467670328	0.04822240567084
0	2629	129.033866252618	0.0485
0	2630	129.064467670328	0.04862240567084
0	2632	129.158866252618	0.049
0	2633	129.164467670328	0.04902240567084
0	2635	129.264467670328	0.04942240567084
0	2636	129.283866252618	0.0495
0	2638	129.364467670328	0.04982240567084
0	2640	129.408866252618	0.05
0	2640	129.452969788	0.05
0	2641	129.464467670328	0.05
0	2643	129.564467670328	0.05
0	2645	129.664467670328	0.05
0	2647	129.764467670328	0.05
0	2649	129.864467670328	0.05
0	2651	129.964467670328	0.05
0	2651	129.966934171	0.05
0	2653	130.020438580668	0.05
0	2655	130.120438580668	0.05
0	2657	130.220438580668	0.05
0	2659	130.320438580668	0.05
0	2659	130.352588995	0.05
0	2661	130.420438580668	0.05
0	2663	130.520438580668	0.05
0	2664	130.612359097	0.05
0	2665	130.620438580668	0.05
0	2667	130.720438580668	0.05
0	2669	130.820438580668	0.05
0	2671	130.920438580668	0.05
0	2673	131.020438580668	0.05
0	2675	131.120438580668	0.05
0	2675	131.132385175	0.05
0	2677	131.220438580668	0.05
0	2679	131.320438580668	0.05
0	2680	131.402851105	0.05
0	2681	131.420438580668	0.05
0	2683	131.520438580668	0.05
0	2685	131.620438580668	0.05
0	2687	131.720438580668	0.05
0	2689	131.820438580668	0.05
0	2689	131.847768187	0.05
0	2691	131.920438580668	0.05
0	2693	132.020438580668	0.05
0	2695	132.120438580668	0.05
0	2697	132.220438580668	0.05
0	2697	132.263156353	0.05
0	2699	132.320438580668	0.05
0	2701	132.420438580668	0.05
0	2703	132.520438580668	0.05
0	2705	132.620438580668	0.05
0	2707	132.720438580668	0.05
0	2708	132.791391877	0.05
0	2709	132.820438580668	0.05
0	2711	132.920438580668	0.05
0	2713	133.020438580668	0.05
0	2715	133.120438580668	0.05
0	2717	133.220438580668	0.05
0	2717	133.290066301	0.05
0	2719	133.320438580668	0.05
0	2721	133.420438580668	0.05
0	2723	133.520438580668	0.05
0	2725	133.620438580668	0.05
0	2727	133.720438580668	0.05
0	2727	133.751807473	0.05
0	2729	133.820438580668	0.05
0	2730	133.890091424724	0.05
0	2733	133.990091424724	0.05
0	2734	134.02405771	0.05
0	2735	134.090091424724	0.05
0	2737	134.190091424724	0.05
0	2738	134.289526177	0.0495
0	2738	134.289526177	0.0495
0	2739	134.290091424724	0.049502260990896
0	2741	134.390091424724	0.049902260990896
0	2743	134.490091424724	0.05
0	2745	134.590091424724	0.05
0	2748	134.690091424724	0.05
0	2750	134.790091424724	0.05
0	2750	134.792018947	0.05
0	2752	134.890091424724	0.05
0	2754	134.990091424724	0.05
0	2756	135.090091424724	0.05
0	2758	135.190091424724	0.05
0	2759	135.258253678	0.05
0	2760	135.290091424724	0.05
0	2762	135.390091424724	0.05
0	2764	135.490091424724	0.05
0	2766	135.590091424724	0.05
0	2768	135.690091424724	0.05
0	2770	135.790091424724	0.05
0	2771	135.855377386	0.05
0	2772	135.890091424724	0.05
0	2774	135.990091424724	0.05
0	2776	136.090091424724	0.05
0	2778	136.190091424724	0.05
0	2780	136.290091424724	0.05
0	2782	136.390091424724	0.05
0	2782	136.409798806	0.05
0	2784	136.490091424724	0.05
0	2786	136.590091424724	0.05
0	2788	136.690091424724	0.05
0	2790	136.790091424724	0.05
0	2791	136.845694783	0.05
0	2792	136.890091424724	0.05
0	2794	136.990091424724	0.05
0	2796	137.090091424724	0.05
0	2798	137.190091424724	0.05
0	2799	137.251041133	0.05
0	2800	137.290091424724	0.05
0	2802	137.390091424724	0.05
0	2804	137.490091424724	0.05
0	2806	137.590091424724	0.05
0	2808	137.671042768947	0.05
0	2808	137.700531346	0.05
0	2810	137.771042768947	0.05
0	2812	137.871042768947	0.05
0	2814	137.971042768947	0.05
0	2816	138.071042768947	0.05
0	2817	138.1365718	0.05
0	2818	138.171042768947	0.05
0	2820	138.271042768947	0.05
0	2822	138.371042768947	0.05
0	2826	138.471042768947	0.05
0	2828	138.571042768947	0.05
0	2828	138.622318789	0.05
0	2830	138.671042768947	0.05
0	2832	138.771042768947	0.05
0	2834	138.871042768947	0.05
0	2836	138.971042768947	0.05
0	2838	139.071042768947	0.05
0	2839	139.139055283	0.05
0	2840	139.171042768947	0.05
0	2842	139.271042768947	0.05
0	2844	139.371042768947	0.05
0	2846	139.471042768947	0.05
0	2848	139.571042768947	0.05
0	2850	139.671042768947	0.05
0	2852	139.771042768947	0.05
0	2852	139.772139127	0.05
0	2854	139.871042768947	0.05
0	2856	139.971042768947	0.05
0	2858	140.071042768947	0.05
0	2860	140.171042768947	0.05
0	2862	140.271042768947	0.05
0	2862	140.296497532	0.05
0	2864	140.371042768947	0.05
0	2866	140.471042768947	0.05
0	2868	140.571042768947	0.05
0	2870	140.671042768947	0.05
0	2871	140.770181479	0.05
0	2872	140.771042768947	0.05
0	2874	140.871042768947	0.05
0	2876	140.971042768947	0.05
0	2878	141.071042768947	0.05
0	2880	141.171042768947	0.05
0	2882	141.271042768947	0.0495
0	2882	141.271042768947	0.0495
0	2882	141.329100733	0.049732231856212
0	2884	141.371042768947	0.0499
0	2886	141.471042768947	0.05
0	2888	141.571042768947	0.05
0	2890	141.671042768947	0.05
0	2892	141.771042768947	0.05
0	2894	141.871042768947	0.05
0	2895	141.951151606	0.05
0	2896	141.971042768947	0.05
0	2898	142.071042768947	0.05
0	2900	142.171042768947	0.05
0	2902	142.271042768947	0.05
0	2905	142.371042768947	0.05
0	2906	142.447925815	0.05
0	2907	142.471042768947	0.05
0	2909	142.571042768947	0.05
0	2911	142.671042768947	0.05
0	2913	142.771042768947	0.05
0	2915	142.871042768947	0.05
0	2915	142.892302228	0.05
0	2917	142.971042768947	0.05
0	2919	143.071042768947	0.05
0	2921	143.171042768947	0.05
0	2923	143.271042768947	0.05
0	2925	143.371042768947	0.05
0	2925	143.405258671	0.05
0	2927	143.471042768947	0.05
0	2929	143.571042768947	0.05
0	2929	143.638844779	0.05
0	2931	143.671042768947	0.05
0	2933	143.771042768947	0.05
0	2935	143.871042768947	0.05
0	2937	143.971042768947	0.05
0	2939	144.071042768947	0.05
0	2939	144.131098282	0.05
0	2941	144.171042768947	0.05
0	2943	144.271042768947	0.05
0	2945	144.371042768947	0.05
0	2947	144.471042768947	0.05
0	2949	144.571042768947	0.05
0	2951	144.671042768947	0.05
0	2951	144.719563861	0.05
0	2953	144.771042768947	0.05
0	2955	144.871042768947	0.05
0	2956	144.929619162178	0.05
0	2958	145.029619162178	0.05
0	2960	145.129619162178	0.05
0	2961	145.222879036	0.05
0	2962	145.229619162178	0.05
0	2964	145.329619162178	0.05
0	2966	145.429619162178	0.0495
0	2966	145.429619162178	0.0495
0	2968	145.529619162178	0.0499
0	2970	145.629619162178	0.05
0	2971	145.664303077	0.05
0	2972	145.729619162178	0.05
0	2974	145.829619162178	0.05
0	2976	145.929619162178	0.05
0	2978	146.029619162178	0.05
0	2979	146.059365574	0.05
0	2980	146.129619162178	0.05
0	2982	146.229619162178	0.05
0	2984	146.329619162178	0.05
0	2986	146.429619162178	0.05
0	2988	146.529619162178	0.05
0	2989	146.570610772	0.05
0	2990	146.629619162178	0.05
0	2992	146.729619162178	0.05
0	2994	146.829619162178	0.0495
0	2994	146.829619162178	0.0495
0	2996	146.929619162178	0.0499
0	2998	147.029619162178	0.05
0	2999	147.049879756	0.05
0	3000	147.129619162178	0.05
0	3002	147.229619162178	0.05
0	3004	147.329619162178	0.05
0	3006	147.429619162178	0.05
0	3008	147.528492439	0.05
0	3009	147.529619162178	0.05
0	3011	147.629619162178	0.05
0	3013	147.729619162178	0.05
0	3013	147.785727721	0.05
0	3015	147.829619162178	0.05
0	3017	147.929619162178	0.05
0	3019	148.029619162178	0.05
0	3021	148.129619162178	0.05
0	3023	148.229619162178	0.05
0	3024	148.314047914	0.05
0	3025	148.329619162178	0.05
0	3027	148.429619162178	0.05
0	3029	148.529619162178	0.05
0	3031	148.629619162178	0.05
0	3033	148.729619162178	0.05
0	3033	148.791472684	0.05
0	3035	148.829619162178	0.05
0	3037	148.929619162178	0.05
0	3039	149.029619162178	0.05
0	3041	149.129619162178	0.05
0	3043	149.229619162178	0.05
0	3043	149.255048857	0.05
0	3045	149.329619162178	0.05
0	3047	149.429619162178	0.05
0	3049	149.529619162178	0.05
0	3051	149.629619162178	0.05
0	3051	149.653125187	0.05
0	3053	149.729619162178	0.05
0	3055	149.829619162178	0.05
0	3057	149.929619162178	0.05
0	3059	150.029619162178	0.05
0	3061	150.129619162178	0.05
0	3061	150.166357084	0.05
0	3063	150.229619162178	0.05
0	3065	150.329619162178	0.05
0	3067	150.429619162178	0.05
0	3067	150.460606813	0.05
0	3069	150.529619162178	0.05
0	3071	150.629619162178	0.05
0	3073	150.729619162178	0.05
0	3073	150.760509529	0.05
0	3075	150.829619162178	0.05
0	3077	150.929619162178	0.05
0	3079	151.029619162178	0.05
0	3079	151.050137266	0.05
0	3080	151.063697274335	0.05
0	3082	151.163697274335	0.05
0	3084	151.263697274335	0.05
0	3086	151.363697274335	0.05
0	3088	151.463697274335	0.05
0	3089	151.519847296	0.05
0	3090	151.563697274335	0.05
0	3092	151.663697274335	0.05
0	3094	151.763697274335	0.05
0	3095	151.807130902	0.05
0	3096	151.863697274335	0.05
0	3098	151.963697274335	0.05
0	3100	152.063697274335	0.05
0	3102	152.163697274335	0.05
0	3104	152.263697274335	0.0495
0	3104	152.263697274335	0.0495
0	3106	152.363697274335	0.0499
0	3107	152.444695957	0.05
0	3108	152.463697274335	0.05
0	3110	152.563697274335	0.05
0	3112	152.663697274335	0.05
0	3114	152.763697274335	0.05
0	3117	152.863697274335	0.05
0	3119	152.963697274335	0.05
0	3119	152.997203014	0.05
0	3121	153.063697274335	0.05
0	3123	153.163697274335	0.05
0	3125	153.263697274335	0.05
0	3127	153.363697274335	0.05
0	3129	153.463697274335	0.05
0	3131	153.563697274335	0.05
0	3132	153.641231311	0.05
0	3133	153.663697274335	0.05
0	3135	153.763697274335	0.05
0	3137	153.863697274335	0.05
0	3139	153.963697274335	0.05
0	3141	154.063697274335	0.05
0	3143	154.163697274335	0.05
0	3145	154.263697274335	0.05
0	3147	154.363697274335	0.05
0	3147	154.412991046	0.05
0	3149	154.463697274335	0.05
0	3151	154.563697274335	0.05
0	3153	154.663697274335	0.05
0	3155	154.763697274335	0.05
0	3157	154.863697274335	0.05
0	3159	154.963697274335	0.05
0	3159	155.008966969	0.05
0	3161	155.063697274335	0.05
0	3163	155.163697274335	0.05
0	3165	155.263697274335	0.05
0	3167	155.363697274335	0.05
0	3169	155.463697274335	0.05
0	3171	155.563697274335	0.05
0	3173	155.663697274335	0.05
0	3173	155.676395221	0.05
0	3175	155.763697274335	0.05
0	3177	155.863697274335	0.05
0	3179	155.963697274335	0.05
0	3181	156.063697274335	0.05
0	3182	156.121385788	0.05
0	3183	156.163697274335	0.05
0	3185	156.263697274335	0.05
0	3187	156.363697274335	0.05
0	3187	156.378196552	0.05
0	3189	156.463697274335	0.05
0	3191	156.516421712797	0.05
0	3193	156.616421712797	0.05
0	3195	156.716421712797	0.05
0	3197	156.816421712797	0.05
0	3197	156.88986469	0.05
0	3199	156.916421712797	0.05
0	3201	157.016421712797	0.05
0	3203	157.116421712797	0.05
0	3205	157.216421712797	0.05
0	3207	157.316421712797	0.05
0	3207	157.358702593	0.05
0	3209	157.416421712797	0.05
0	3211	157.516421712797	0.05
0	3213	157.616421712797	0.05
0	3215	157.716421712797	0.05
0	3217	157.816421712797	0.05
0	3217	157.84969705	0.05
0	3219	157.916421712797	0.05
0	3221	158.016421712797	0.05
0	3223	158.116421712797	0.05
0	3225	158.216421712797	0.05
0	3227	158.316421712797	0.05
0	3229	158.416421712797	0.05
0	3231	158.516421712797	0.05
0	3231	158.531591581	0.05
0	3233	158.616421712797	0.05
0	3235	158.716421712797	0.05
0	3237	158.816421712797	0.05
0	3237	158.908840282	0.05
0	3239	158.916421712797	0.05
0	3241	159.016421712797	0.05
0	3243	159.116421712797	0.05
0	3245	159.216421712797	0.05
0	3247	159.316421712797	0.05
0	3247	159.362827354	0.0495
0	3247	159.362827354	0.0495
0	3249	159.416421712797	0.049714377435188
0	3251	159.516421712797	0.05
0	3253	159.616421712797	0.05
0	3255	159.716421712797	0.05
0	3257	159.816421712797	0.05
0	3257	159.887704024	0.05
0	3259	159.916421712797	0.05
0	3261	160.016421712797	0.05
0	3263	160.116421712797	0.05
0	3265	160.216421712797	0.05
0	3265	160.301307646	0.05
0	3267	160.316421712797	0.05
0	3269	160.416421712797	0.05
0	3271	160.516421712797	0.05
0	3273	160.616421712797	0.05
0	3275	160.716421712797	0.05
0	3277	160.816421712797	0.05
0	3278	160.836618739	0.05
0	3279	160.916421712797	0.05
0	3281	161.016421712797	0.05
0	3283	161.116421712797	0.05
0	3285	161.216421712797	0.05
0	3286	161.26024438	0.05
0	3287	161.316421712797	0.05
0	3289	161.416421712797	0.05
0	3291	161.516421712797	0.05
0	3293	161.616421712797	0.05
0	3295	161.716421712797	0.05
0	3297	161.816421712797	0.05
0	3298	161.883274786	0.05
0	3299	161.916421712797	0.05
0	3301	162.016421712797	0.05
0	3303	162.116421712797	0.05
0	3305	162.216421712797	0.05
0	3307	162.316421712797	0.05
0	3309	162.416421712797	0.05
0	3310	162.496587259	0.05
0	3311	162.516421712797	0.05
0	3313	162.616421712797	0.05
0	3315	162.716421712797	0.05
0	3317	162.816421712797	0.05
0	3319	162.916421712797	0.05
0	3320	162.955826947	0.05
0	3321	163.016421712797	0.05
0	3323	163.116421712797	0.05
0	3325	163.216421712797	0.05
0	3327	163.316421712797	0.05
0	3329	163.416421712797	0.05
0	3330	163.437451093	0.05
0	3331	163.516421712797	0.05
0	3333	163.616421712797	0.05
0	3335	163.716421712797	0.05
0	3337	163.816421712797	0.05
0	3338	163.873850725	0.05
0	3339	163.916421712797	0.05
0	3341	164.016421712797	0.05
0	3343	164.116421712797	0.05
0	3345	164.216421712797	0.05
0	3347	164.316421712797	0.05
0	3348	164.385281761	0.05
0	3349	164.416421712797	0.05
0	3351	164.516421712797	0.05
0	3353	164.616421712797	0.05
0	3355	164.716421712797	0.05
0	3357	164.816421712797	0.05
0	3358	164.915151235	0.05
0	3359	164.916421712797	0.05
0	3361	165.016421712797	0.05
0	3363	165.116421712797	0.05
0	3365	165.216421712797	0.05
0	3367	165.316421712797	0.05
0	3369	165.416421712797	0.05
0	3370	165.458723296	0.05
0	3371	165.516421712797	0.05
0	3373	165.616421712797	0.05
0	3375	165.716421712797	0.05
0	3377	165.816421712797	0.05
0	3379	165.916421712797	0.05
0	3381	166.016421712797	0.05
0	3382	166.082996905	0.05
0	3383	166.116421712797	0.05
0	3385	166.216421712797	0.05
0	3387	166.316421712797	0.05
0	3389	166.416421712797	0.05
0	3391	166.424431332359	0.05
0	3393	166.524431332359	0.05
0	3395	166.624431332359	0.05
0	3395	166.707096109	0.05
0	3397	166.724431332359	0.05
0	3399	166.824431332359	0.05
0	3401	166.924431332359	0.05
0	3403	167.024431332359	0.05
0	3405	167.124431332359	0.05
0	3407	167.224431332359	0.05
0	3409	167.324431332359	0.05
0	3411	167.424431332359	0.05
0	3411	167.515486459	0.05
0	3413	167.524431332359	0.05
0	3415	167.624431332359	0.05
0	3417	167.724431332359	0.05
0	3419	167.824431332359	0.05
0	3421	167.924431332359	0.05
0	3423	168.024431332359	0.05
0	3425	168.124431332359	0.05
0	3427	168.224431332359	0.05
0	3429	168.324431332359	0.05
0	3429	168.420963436	0.05
0	3431	168.424431332359	0.05
0	3433	168.524431332359	0.05
0	3435	168.624431332359	0.05
0	3437	168.724431332359	0.05
0	3439	168.824431332359	0.05
0	3441	168.924431332359	0.05
0	3441	168.945589387	0.05
0	3443	169.024431332359	0.05
0	3445	169.124431332359	0.05
0	3447	169.224431332359	0.05
0	3449	169.324431332359	0.05
0	3451	169.424431332359	0.05
0	3451	169.451200858	0.05
0	3453	169.524431332359	0.05
0	3455	169.624431332359	0.05
0	3457	169.724431332359	0.05
0	3459	169.824431332359	0.05
0	3461	169.924431332359	0.05
0	3461	169.932802966	0.05
0	3463	170.024431332359	0.05
0	3465	170.124431332359	0.05
0	3467	170.224431332359	0.05
0	3469	170.324431332359	0.05
0	3470	170.342304702117	0.05
0	3473	170.442304702117	0.05
0	3473	170.447755486	0.05
0	3475	170.542304702117	0.05
0	3477	170.642304702117	0.05
0	3478	170.728129429	0.0495
0	3478	170.728129429	0.0495
0	3479	170.742304702117	0.049556701092468
0	3481	170.842304702117	0.049956701092468
0	3483	170.942304702117	0.05
0	3484	171.011370847	0.05
0	3485	171.042304702117	0.05
0	3487	171.142304702117	0.05
0	3489	171.242304702117	0.05
0	3491	171.342304702117	0.05
0	3493	171.442304702117	0.05
0	3494	171.480008005	0.05
0	3495	171.542304702117	0.05
0	3497	171.642304702117	0.05
0	3499	171.742304702117	0.05
0	3499	171.770369278	0.05
0	3501	171.842304702117	0.05
0	3503	171.942304702117	0.05
0	3505	172.042304702117	0.0495
0	3505	172.042304702117	0.0495
0	3507	172.142304702117	0.0499
0	3509	172.242304702117	0.05
0	3510	172.338970207	0.05
0	3511	172.342304702117	0.05
0	3513	172.442304702117	0.05
0	3515	172.542304702117	0.05
0	3517	172.642304702117	0.05
0	3518	172.729939138	0.05
0	3519	172.742304702117	0.05
0	3521	172.842304702117	0.05
0	3523	172.942304702117	0.05
0	3525	173.042304702117	0.05
0	3527	173.142304702117	0.05
0	3529	173.242304702117	0.05
0	3532	173.320953454	0.05
0	3533	173.342304702117	0.05
0	3535	173.442304702117	0.05
0	3537	173.542304702117	0.05
0	3539	173.642304702117	0.05
0	3541	173.742304702117	0.05
0	3543	173.842304702117	0.05
0	3545	173.942304702117	0.05
0	3545	173.984050183	0.05
0	3547	174.042304702117	0.05
0	3549	174.142304702117	0.05
0	3551	174.242304702117	0.05
0	3553	174.342304702117	0.05
0	3555	174.442304702117	0.05
0	3557	174.542304702117	0.05
0	3557	174.592566994	0.05
0	3559	174.636708388908	0.05
0	3560	174.642304702117	0.05
0	3562	174.742304702117	0.05
0	3564	174.842304702117	0.0495
0	3564	174.842304702117	0.0495
0	3566	174.942304702117	0.0495
0	3568	175.042304702117	0.0495
0	3569	175.106962438	0.0495
0	3570	175.142304702117	0.0495
0	3572	175.242304702117	0.0495
0	3574	175.342304702117	0.0495
0	3576	175.442304702117	0.0495
0	3578	175.542304702117	0.0495
0	3580	175.642304702117	0.0495
0	3580	175.682619226	0.0495
0	3582	175.742304702117	0.0495
0	3584	175.842304702117	0.0495
0	3586	175.942304702117	0.0495
0	3588	176.042304702117	0.0495
0	3590	176.142304702117	0.0495
0	3592	176.242304702117	0.0495
0	3592	176.28718507	0.0495
0	3594	176.342304702117	0.0495
0	3596	176.442304702117	0.0495
0	3598	176.542304702117	0.0495
0	3600	176.642304702117	0.0495
0	3602	176.742304702117	0.0495
0	3604	176.842304702117	0.0495
0	3606	176.942304702117	0.0495
0	3607	177.001558921	0.0495
0	3608	177.042304702117	0.0495
0	3610	177.142304702117	0.0495
0	3612	177.242304702117	0.0495
0	3614	177.342304702117	0.0495
0	3616	177.442304702117	0.0495
0	3618	177.542304702117	0.0495
0	3619	177.606783706	0.0495
0	3620	177.642304702117	0.0495
0	3622	177.742304702117	0.049005
0	3622	177.742304702117	0.049005
0	3624	177.842304702117	0.049005
0	3626	177.942304702117	0.049005
0	3628	178.042304702117	0.049005
0	3629	178.116561577	0.049005
0	3630	178.142304702117	0.049005
0	3632	178.242304702117	0.049005
0	3634	178.342304702117	0.049005
0	3636	178.442304702117	0.049005
0	3638	178.542304702117	0.049005
0	3639	178.638657874	0.049005
0	3640	178.642304702117	0.049005
0	3642	178.742304702117	0.049005
0	3644	178.842304702117	0.049005
0	3647	178.942304702117	0.049005
0	3649	179.042304702117	0.049005
0	3650	179.101373503	0.049005
0	3651	179.142304702117	0.049005
0	3653	179.242304702117	0.049005
0	3655	179.342304702117	0.049005
0	3657	179.442304702117	0.049005
0	3658	179.53407193	0.049005
0	3659	179.542304702117	0.049005
0	3661	179.642304702117	0.049005
0	3663	179.742304702117	0.049005
0	3665	179.842304702117	0.049005
0	3667	179.942304702117	0.049005
0	3669	180.042304702117	0.049005
0	3671	180.142304702117	0.049005
0	3673	180.242304702117	0.049005
0	3674	180.29085961	0.049005
0	3675	180.342304702117	0.049005
0	3677	180.442304702117	0.049005
0	3679	180.542304702117	0.049005
0	3681	180.642304702117	0.049005
0	3683	180.742304702117	0.049005
0	3683	180.747401047	0.049005
0	3685	180.842304702117	0.049005
0	3687	180.942304702117	0.049005
0	3689	181.042304702117	0.049005
0	3691	181.142304702117	0.049005
0	3693	181.242304702117	0.049005
0	3694	181.284728842	0.049005
0	3695	181.342304702117	0.049005
0	3697	181.442304702117	0.049005
0	3699	181.542304702117	0.049005
0	3701	181.642304702117	0.049005
0	3703	181.742304702117	0.049005
0	3703	181.748310592	0.049005
0	3705	181.842304702117	0.049005
0	3707	181.942304702117	0.049005
0	3709	182.042304702117	0.049005
0	3711	182.142304702117	0.049005
0	3713	182.242304702117	0.049005
0	3713	182.251375642	0.049005
0	3715	182.342304702117	0.049005
0	3717	182.442304702117	0.049005
0	3719	182.542304702117	0.049005
0	3721	182.642304702117	0.049005
0	3723	182.742304702117	0.049005
0	3725	182.842304702117	0.049005
0	3726	182.922395155	0.049005
0	3727	182.942304702117	0.049005
0	3729	183.042304702117	0.049005
0	3731	183.142304702117	0.049005
0	3733	183.242304702117	0.049005
0	3735	183.342304702117	0.049005
0	3737	183.442304702117	0.049005
0	3738	183.495158008	0.049005
0	3739	183.542304702117	0.049005
0	3741	183.642304702117	0.049005
0	3743	183.742304702117	0.049005
0	3745	183.842304702117	0.049005
0	3747	183.942304702117	0.049005
0	3749	184.042304702117	0.049005
0	3751	184.142304702117	0.049005
0	3752	184.167901198	0.049005
0	3753	184.242304702117	0.049005
0	3755	184.342304702117	0.049005
0	3757	184.442304702117	0.049005
0	3759	184.542304702117	0.049005
0	3761	184.642304702117	0.049005
0	3763	184.742304702117	0.049005
0	3765	184.842304702117	0.049005
0	3765	184.854063037	0.049005
0	3767	184.942304702117	0.049005
0	3769	185.042304702117	0.049005
0	3771	185.142304702117	0.049005
0	3773	185.242304702117	0.049005
0	3775	185.342304702117	0.049005
0	3777	185.442304702117	0.049005
0	3780	185.542304702117	0.049005
0	3782	185.642304702117	0.049005
0	3783	185.698717177	0.049005
0	3784	185.742304702117	0.049005
0	3786	185.842304702117	0.049005
0	3788	185.942304702117	0.049005
0	3790	186.042304702117	0.049005
0	3791	186.139359304	0.049005
0	3792	186.142304702117	0.049005
0	3794	186.242304702117	0.049005
0	3796	186.342304702117	0.04851495
0	3796	186.342304702117	0.04851495
0	3798	186.442304702117	0.04851495
0	3800	186.542304702117	0.04851495
0	3802	186.642304702117	0.04851495
0	3802	186.693414838	0.04851495
0	3804	186.742304702117	0.04851495
0	3806	186.842304702117	0.04851495
0	3808	186.942304702117	0.04851495
0	3810	187.042304702117	0.04851495
0	3811	187.131635608	0.04851495
0	3812	187.142304702117	0.04851495
0	3814	187.242304702117	0.04851495
0	3816	187.342304702117	0.04851495
0	3817	187.421354497	0.04851495
0	3818	187.442304702117	0.04851495
0	3820	187.542304702117	0.04851495
0	3822	187.642304702117	0.04851495
0	3823	187.711084006	0.0480298005
0	3823	187.711084006	0.0480298005
0	3824	187.742304702117	0.0480298005
0	3826	187.842304702117	0.0480298005
0	3828	187.942304702117	0.0480298005
0	3830	188.042304702117	0.0480298005
0	3832	188.142304702117	0.0480298005
0	3833	188.210929225	0.0480298005
0	3834	188.242304702117	0.0480298005
0	3836	188.342304702117	0.0480298005
0	3838	188.442304702117	0.0480298005
0	3840	188.542304702117	0.0480298005
0	3841	188.612331895	0.0480298005
0	3842	188.642304702117	0.0480298005
0	3844	188.742304702117	0.0480298005
0	3846	188.842304702117	0.0480298005
0	3847	188.898065389	0.0480298005
0	3848	188.942304702117	0.0480298005
0	3850	189.042304702117	0.047549502495
0	3850	189.042304702117	0.047549502495
0	3852	189.142304702117	0.047549502495
0	3852	189.176191678	0.047549502495
0	3854	189.242304702117	0.047549502495
0	3856	189.342304702117	0.047549502495
0	3858	189.442304702117	0.047549502495
0	3858	189.474887584	0.047549502495
0	3860	189.542304702117	0.047549502495
0	3862	189.642304702117	0.047549502495
0	3864	189.742304702117	0.047549502495
0	3866	189.842304702117	0.047549502495
0	3868	189.942304702117	0.047549502495
0	3868	189.9697087	0.047549502495
0	3870	190.042304702117	0.047549502495
0	3872	190.142304702117	0.047549502495
0	3874	190.242304702117	0.047549502495
0	3876	190.342304702117	0.047549502495
0	3878	190.442304702117	0.04707400747005
0	3878	190.442304702117	0.04707400747005
0	3879	190.500326782	0.04707400747005
0	3880	190.542304702117	0.04707400747005
0	3882	190.642304702117	0.04707400747005
0	3884	190.742304702117	0.04707400747005
0	3886	190.842304702117	0.04707400747005
0	3888	190.942304702117	0.04707400747005
0	3889	191.011031758	0.04707400747005
0	3891	191.042304702117	0.04707400747005
0	3893	191.142304702117	0.04707400747005
0	3896	191.242304702117	0.04707400747005
0	3899	191.342304702117	0.04707400747005
0	3902	191.442304702117	0.04707400747005
0	3904	191.531548936	0.04707400747005
0	3905	191.542304702117	0.04707400747005
0	3907	191.642304702117	0.04707400747005
0	3910	191.742304702117	0.04707400747005
0	3912	191.842304702117	0.04707400747005
0	3914	191.942304702117	0.04707400747005
0	3914	191.961182413	0.04707400747005
0	3916	192.042304702117	0.04707400747005
0	3918	192.142304702117	0.04707400747005
0	3920	192.242304702117	0.04707400747005
0	3922	192.342304702117	0.04707400747005
0	3924	192.442304702117	0.04707400747005
0	3925	192.511110034	0.04707400747005
0	3926	192.542304702117	0.04707400747005
0	3928	192.642304702117	0.04707400747005
0	3930	192.742304702117	0.04707400747005
0	3932	192.842304702117	0.04707400747005
0	3934	192.942304702117	0.04707400747005
0	3935	193.034373364	0.04660326739535
0	3935	193.034373364	0.04660326739535
0	3936	193.042304702117	0.04660326739535
0	3938	193.142304702117	0.04660326739535
0	3940	193.242304702117	0.04660326739535
0	3942	193.342304702117	0.04660326739535
0	3944	193.442304702117	0.04660326739535
0	3944	193.474893094	0.04660326739535
0	3946	193.542304702117	0.04660326739535
0	3948	193.642304702117	0.04660326739535
0	3950	193.742304702117	0.04660326739535
0	3952	193.842304702117	0.04660326739535
0	3954	193.942304702117	0.04660326739535
0	3955	194.02751365	0.04660326739535
0	3956	194.042304702117	0.04660326739535
0	3958	194.142304702117	0.04660326739535
0	3960	194.242304702117	0.04660326739535
0	3962	194.342304702117	0.04660326739535
0	3964	194.442304702117	0.046137234721396
0	3964	194.442304702117	0.046137234721396
0	3965	194.530429021	0.046137234721396
0	3966	194.542304702117	0.046137234721396
0	3968	194.642304702117	0.046137234721396
0	3970	194.742304702117	0.046137234721396
0	3972	194.842304702117	0.046137234721396
0	3974	194.942304702117	0.046137234721396
0	3975	195.022253263	0.046137234721396
0	3976	195.042304702117	0.046137234721396
0	3978	195.142304702117	0.046137234721396
[...]
2	4106	201.510189244051	0.0495
2	4106	201.510189244051	0.0495
2	4108	201.610189244051	0.0499
2	4110	201.710189244051	0.05
2	4111	201.755524648	0.05
2	4112	201.810189244051	0.05
2	4114	201.910189244051	0.05
2	4116	202.010189244051	0.05
2	4118	202.110189244051	0.05
2	4120	202.210189244051	0.05
2	4120	202.218711505	0.05
2	4122	202.310189244051	0.05
2	4124	202.410189244051	0.05
2	4126	202.510189244051	0.05
2	4128	202.610189244051	0.05
2	4130	202.662486940824	0.05
2	4130	202.679543728	0.05
2	4131	202.710189244051	0.05
2	4132	202.739850338239	0.05
2	4134	202.839850338239	0.0495
2	4134	202.839850338239	0.0495
2	4136	202.939850338239	0.0495
2	4138	203.039850338239	0.0495
2	4140	203.139850338239	0.0495
2	4142	203.239850338239	0.0495
2	4143	203.245321279	0.0495
2	4144	203.339850338239	0.0495
2	4146	203.439850338239	0.0495
2	4148	203.539850338239	0.0495
2	4150	203.639850338239	0.0495
2	4152	203.739850338239	0.0495
2	4154	203.839850338239	0.0495
2	4155	203.851738606	0.0495
2	4156	203.939850338239	0.0495
2	4158	204.039850338239	0.0495
2	4160	204.139850338239	0.0495
2	4162	204.239850338239	0.0495
2	4164	204.339850338239	0.049005
2	4164	204.339850338239	0.049005
2	4166	204.439850338239	0.049005
2	4167	204.4491784	0.049005
2	4168	204.539850338239	0.049005
2	4170	204.639850338239	0.049005
2	4172	204.739850338239	0.049005
2	4174	204.839850338239	0.049005
2	4176	204.939850338239	0.049005
2	4177	204.961734421	0.049005
2	4178	205.039850338239	0.049005
2	4180	205.139850338239	0.049005
2	4182	205.239850338239	0.049005
2	4184	205.339850338239	0.049005
2	4185	205.423014406	0.049005
2	4186	205.439850338239	0.049005
2	4188	205.539850338239	0.049005
2	4190	205.639850338239	0.049005
2	4192	205.739850338239	0.04851495
2	4192	205.739850338239	0.04851495
2	4194	205.839850338239	0.04851495
2	4195	205.872160357	0.04851495
2	4196	205.939850338239	0.04851495
2	4198	206.039850338239	0.04851495
2	4200	206.139850338239	0.04851495
2	4202	206.239850338239	0.04851495
2	4204	206.339850338239	0.04851495
2	4205	206.399026726	0.04851495
2	4206	206.439850338239	0.04851495
2	4208	206.539850338239	0.04851495
2	4210	206.639850338239	0.04851495
2	4212	206.739850338239	0.04851495
2	4214	206.839850338239	0.04851495
2	4215	206.939299423	0.04851495
2	4216	206.939850338239	0.04851495
2	4218	207.039850338239	0.04851495
2	4220	207.139850338239	0.0480298005
2	4220	207.139850338239	0.0480298005
2	4222	207.239850338239	0.0480298005
2	4224	207.339850338239	0.0480298005
2	4226	207.439850338239	0.0480298005
2	4227	207.467213806	0.0480298005
2	4228	207.539850338239	0.0480298005
2	4230	207.639850338239	0.0480298005
2	4232	207.739850338239	0.0480298005
2	4234	207.839850338239	0.0480298005
2	4235	207.886035034	0.0480298005
2	4236	207.939850338239	0.0480298005
2	4238	208.039850338239	0.0480298005
2	4240	208.139850338239	0.0480298005
2	4242	208.239850338239	0.0480298005
2	4244	208.273014996114	0.0480298005
2	4246	208.358142841	0.0480298005
2	4247	208.373014996114	0.0480298005
2	4249	208.473014996114	0.047549502495
2	4249	208.473014996114	0.047549502495
2	4251	208.573014996114	0.047549502495
2	4253	208.673014996114	0.047549502495
2	4255	208.773014996114	0.047549502495
2	4257	208.873014996114	0.047549502495
2	4259	208.973014996114	0.047549502495
2	4259	208.98054994	0.047549502495
2	4261	209.073014996114	0.047549502495
2	4263	209.173014996114	0.047549502495
2	4265	209.273014996114	0.047549502495
2	4267	209.373014996114	0.047549502495
2	4269	209.473014996114	0.047549502495
2	4271	209.573014996114	0.047549502495
2	4271	209.609090803	0.047549502495
2	4273	209.673014996114	0.047549502495
2	4275	209.773014996114	0.047549502495
2	4277	209.873014996114	0.047549502495
2	4279	209.973014996114	0.04707400747005
2	4279	209.973014996114	0.04707400747005
2	4281	210.073014996114	0.04707400747005
2	4283	210.173014996114	0.04707400747005
2	4283	210.200840566	0.04707400747005
2	4285	210.273014996114	0.04707400747005
2	4287	210.373014996114	0.04707400747005
2	4289	210.473014996114	0.04707400747005
2	4291	210.573014996114	0.04707400747005
2	4293	210.673014996114	0.04707400747005
2	4295	210.773014996114	0.04707400747005
2	4297	210.873014996114	0.04707400747005
2	4297	210.896199349	0.04707400747005
2	4299	210.973014996114	0.04707400747005
2	4301	211.073014996114	0.04707400747005
2	4303	211.173014996114	0.04707400747005
2	4305	211.273014996114	0.04707400747005
2	4307	211.373014996114	0.04707400747005
2	4309	211.473014996114	0.04660326739535
2	4309	211.473014996114	0.04660326739535
2	4309	211.536233347	0.04660326739535
2	4311	211.573014996114	0.04660326739535
2	4313	211.673014996114	0.04660326739535
2	4315	211.773014996114	0.04660326739535
2	4317	211.873014996114	0.04660326739535
2	4319	211.973014996114	0.04660326739535
2	4321	212.073014996114	0.04660326739535
2	4321	212.088664417	0.04660326739535
2	4323	212.173014996114	0.04660326739535
2	4325	212.273014996114	0.04660326739535
2	4326	212.369904451	0.04660326739535
2	4327	212.373014996114	0.04660326739535
2	4329	212.473014996114	0.04660326739535
2	4331	212.573014996114	0.04660326739535
2	4333	212.673014996114	0.04660326739535
2	4335	212.773014996114	0.04660326739535
2	4335	212.791165021	0.046137234721396
2	4335	212.791165021	0.046137234721396
2	4337	212.873014996114	0.046137234721396
2	4339	212.973014996114	0.046137234721396
2	4341	213.073014996114	0.046137234721396
2	4343	213.173014996114	0.046137234721396
2	4344	213.268647733	0.046137234721396
2	4345	213.273014996114	0.046137234721396
2	4347	213.373014996114	0.046137234721396
2	4349	213.473014996114	0.046137234721396
2	4351	213.573014996114	0.046137234721396
2	4353	213.673014996114	0.046137234721396
2	4354	213.754640347	0.046137234721396
2	4355	213.773014996114	0.046137234721396
2	4357	213.873014996114	0.046137234721396
2	4359	213.973014996114	0.046137234721396
2	4361	214.073014996114	0.046137234721396
2	4363	214.173014996114	0.046137234721396
2	4364	214.256265577	0.046137234721396
2	4365	214.273014996114	0.046137234721396
2	4367	214.373014996114	0.046137234721396
2	4369	214.473014996114	0.046137234721396
2	4371	214.573014996114	0.046137234721396
2	4373	214.673014996114	0.046137234721396
2	4373	214.698953083	0.046137234721396
2	4375	214.773014996114	0.046137234721396
2	4377	214.873014996114	0.046137234721396
2	4379	214.973014996114	0.046137234721396
2	4381	215.073014996114	0.046137234721396
2	4382	215.161848202	0.046137234721396
2	4383	215.173014996114	0.046137234721396
2	4385	215.273014996114	0.046137234721396
2	4387	215.373014996114	0.046137234721396
2	4389	215.473014996114	0.046137234721396
2	4391	215.573014996114	0.046137234721396
2	4392	215.67152866	0.046137234721396
2	4393	215.673014996114	0.046137234721396
2	4395	215.773014996114	0.046137234721396
2	4397	215.873014996114	0.046137234721396
2	4399	215.973014996114	0.046137234721396
2	4401	216.073014996114	0.046137234721396
2	4402	216.143927083	0.046137234721396
2	4403	216.173014996114	0.046137234721396
2	4405	216.273014996114	0.046137234721396
2	4407	216.373014996114	0.046137234721396
2	4409	216.473014996114	0.046137234721396
2	4411	216.573014996114	0.046137234721396
2	4413	216.673014996114	0.046137234721396
2	4413	216.68077645	0.046137234721396
2	4415	216.773014996114	0.046137234721396
2	4417	216.873014996114	0.046137234721396
2	4419	216.973014996114	0.046137234721396
2	4421	217.073014996114	0.045675862374182
2	4421	217.073014996114	0.045675862374182
2	4423	217.173014996114	0.045675862374182
2	4423	217.182690265	0.045675862374182
2	4425	217.273014996114	0.045675862374182
2	4427	217.373014996114	0.045675862374182
2	4429	217.473014996114	0.045675862374182
2	4431	217.573014996114	0.045675862374182
2	4431	217.630467739	0.045675862374182
2	4433	217.673014996114	0.045675862374182
2	4435	217.773014996114	0.045675862374182
2	4437	217.873014996114	0.045675862374182
2	4437	217.905932803	0.045675862374182
2	4439	217.973014996114	0.045675862374182
2	4441	218.073014996114	0.045675862374182
2	4443	218.173014996114	0.045675862374182
2	4445	218.273014996114	0.045675862374182
2	4447	218.373014996114	0.045675862374182
2	4448	218.469484327	0.045675862374182
2	4449	218.473014996114	0.045675862374182
2	4451	218.573014996114	0.045675862374182
2	4453	218.673014996114	0.045675862374182
2	4455	218.773014996114	0.045675862374182
2	4457	218.873014996114	0.045675862374182
2	4459	218.973014996114	0.045675862374182
2	4461	219.073014996114	0.045675862374182
2	4461	219.080442778	0.045675862374182
2	4463	219.173014996114	0.045675862374182
2	4465	219.273014996114	0.045675862374182
2	4467	219.373014996114	0.045675862374182
2	4469	219.473014996114	0.045675862374182
2	4471	219.573014996114	0.045675862374182
2	4471	219.610306771	0.045675862374182
2	4473	219.673014996114	0.045675862374182
2	4475	219.773014996114	0.045675862374182
2	4477	219.873014996114	0.04521910375044
2	4477	219.873014996114	0.04521910375044
2	4479	219.973014996114	0.04521910375044
2	4481	220.073014996114	0.04521910375044
2	4482	220.147018765	0.04521910375044
2	4483	220.173014996114	0.04521910375044
2	4485	220.273014996114	0.04521910375044
2	4487	220.373014996114	0.04521910375044
2	4489	220.473014996114	0.04521910375044
2	4491	220.573014996114	0.04521910375044
2	4493	220.673014996114	0.04521910375044
2	4493	220.727080276	0.04521910375044
2	4495	220.773014996114	0.04521910375044
2	4497	220.873014996114	0.04521910375044
2	4499	220.973014996114	0.04521910375044
2	4501	221.073014996114	0.04521910375044
2	4503	221.173014996114	0.04521910375044
2	4505	221.273014996114	0.04521910375044
2	4507	221.373014996114	0.044766912712936
2	4507	221.373014996114	0.044766912712936
2	4507	221.38358212	0.044766912712936
2	4509	221.473014996114	0.044766912712936
2	4511	221.550404705954	0.044766912712936
2	4512	221.573014996114	0.044857353873576
2	4513	221.60867652772	0.045
2	4515	221.673014996114	0.045257353873576
2	4516	221.73367652772	0.0455
2	4518	221.773014996114	0.045657353873576
2	4520	221.85867652772	0.046
2	4521	221.873014996114	0.046057353873576
2	4523	221.973014996114	0.046457353873576
2	4524	221.98367652772	0.0465
2	4526	222.073014996114	0.046857353873576
2	4526	222.080696449	0.04688807968512
2	4527	222.10867652772	0.047
2	4529	222.173014996114	0.047257353873576
2	4530	222.23367652772	0.0475
2	4532	222.273014996114	0.047657353873576
2	4534	222.35867652772	0.048
2	4535	222.373014996114	0.048057353873576
2	4537	222.473014996114	0.04797278033484
2	4537	222.473014996114	0.04797278033484
2	4538	222.48367652772	0.0485
2	4539	222.561363772	0.04881074897712
2	4540	222.573014996114	0.048857353873576
2	4541	222.60867652772	0.049
2	4543	222.673014996114	0.049257353873576
2	4544	222.73367652772	0.0495
2	4546	222.773014996114	0.049657353873576
2	4548	222.85867652772	0.05
2	4549	222.873014996114	0.05
2	4551	222.973014996114	0.05
2	4553	223.073014996114	0.05
2	4553	223.128412099	0.05
2	4555	223.173014996114	0.05
2	4557	223.273014996114	0.05
2	4559	223.373014996114	0.05
2	4561	223.473014996114	0.05
2	4563	223.573014996114	0.05
2	4563	223.621513168	0.05
2	4565	223.673014996114	0.0495
2	4565	223.673014996114	0.0495
2	4567	223.773014996114	0.0499
2	4569	223.873014996114	0.05
2	4571	223.973014996114	0.05
2	4573	224.073014996114	0.05
2	4573	224.11019578	0.05
2	4575	224.173014996114	0.05
2	4577	224.273014996114	0.05
2	4579	224.373014996114	0.05
2	4581	224.473014996114	0.05
2	4583	224.573014996114	0.05
2	4584	224.65696789	0.05
2	4585	224.673014996114	0.05
2	4587	224.773014996114	0.05
2	4589	224.873014996114	0.05
2	4591	224.973014996114	0.05
2	4593	225.073014996114	0.05
2	4595	225.173014996114	0.0495
2	4595	225.173014996114	0.0495
2	4596	225.24600979	0.049791979175544
2	4597	225.273014996114	0.0499
2	4599	225.373014996114	0.05
2	4601	225.473014996114	0.05
2	4603	225.573014996114	0.05
2	4605	225.673014996114	0.05
2	4607	225.773014996114	0.05
2	4607	225.821796544	0.05
2	4609	225.873014996114	0.05
2	4611	225.973014996114	0.05
2	4613	226.073014996114	0.05
2	4615	226.173014996114	0.05
2	4617	226.273014996114	0.05
2	4617	226.301769292	0.05
2	4619	226.373014996114	0.05
2	4621	226.473014996114	0.05
2	4623	226.573014996114	0.0495
2	4623	226.573014996114	0.0495
2	4625	226.673014996114	0.0499
2	4627	226.773014996114	0.05
2	4627	226.777098874	0.05
2	4629	226.873014996114	0.05
2	4631	226.973014996114	0.05
2	4633	227.073014996114	0.05
2	4635	227.173014996114	0.05
2	4635	227.207242453	0.05
2	4637	227.273014996114	0.05
2	4639	227.373014996114	0.05
2	4641	227.473014996114	0.05
2	4643	227.573014996114	0.05
2	4645	227.673014996114	0.05
2	4647	227.773014996114	0.05
2	4647	227.775668425	0.05
2	4649	227.873014996114	0.05
2	4651	227.973014996114	0.0495
2	4651	227.973014996114	0.0495
2	4653	228.073014996114	0.0499
2	4655	228.173014996114	0.05
2	4657	228.273014996114	0.05
2	4659	228.373014996114	0.05
2	4659	228.419394166	0.05
2	4661	228.473014996114	0.05
2	4663	228.573014996114	0.05
2	4665	228.673014996114	0.05
2	4667	228.773014996114	0.05
2	4669	228.873014996114	0.05
2	4670	228.94992415	0.05
2	4671	228.973014996114	0.05
2	4673	229.073014996114	0.05
2	4675	229.173014996114	0.05
2	4677	229.273014996114	0.05
2	4679	229.373014996114	0.05
2	4681	229.473014996114	0.0495
2	4681	229.473014996114	0.0495
2	4683	229.573014996114	0.0499
2	4684	229.648892632	0.05
2	4685	229.673014996114	0.05
2	4687	229.773014996114	0.05
2	4689	229.873014996114	0.05
2	4691	229.973014996114	0.05
2	4693	230.073014996114	0.05
2	4695	230.173014996114	0.05
2	4697	230.273014996114	0.05
2	4699	230.373014996114	0.05
2	4701	230.473014996114	0.05
2	4701	230.514512101	0.05
2	4703	230.573014996114	0.05
2	4705	230.673014996114	0.05
2	4707	230.773014996114	0.05
2	4709	230.873014996114	0.05
2	4711	230.973014996114	0.0495
2	4711	230.973014996114	0.0495
2	4713	231.073014996114	0.0499
2	4713	231.133153357	0.05
2	4715	231.173014996114	0.05
2	4717	231.273014996114	0.05
2	4719	231.373014996114	0.05
2	4721	231.473014996114	0.05
2	4723	231.573014996114	0.05
2	4724	231.661386364	0.05
2	4725	231.673014996114	0.05
2	4727	231.773014996114	0.05
2	4729	231.873014996114	0.05
2	4731	231.973014996114	0.05
2	4733	232.073014996114	0.05
2	4733	232.094711356	0.05
2	4735	232.173014996114	0.05
2	4737	232.273014996114	0.05
2	4739	232.373014996114	0.0495
2	4739	232.373014996114	0.0495
2	4741	232.473014996114	0.0499
2	4742	232.56968398	0.05
2	4743	232.573014996114	0.05
2	4745	232.673014996114	0.05
2	4747	232.773014996114	0.05
2	4749	232.873014996114	0.05
2	4751	232.973014996114	0.05
2	4751	233.020128373	0.05
2	4753	233.073014996114	0.05
2	4755	233.173014996114	0.05
2	4757	233.273014996114	0.05
2	4759	233.373014996114	0.05
2	4761	233.473014996114	0.05
2	4762	233.550463513	0.05
2	4763	233.573014996114	0.05
2	4765	233.673014996114	0.05
2	4767	233.773014996114	0.0495
2	4767	233.773014996114	0.0495
2	4769	233.873014996114	0.0499
2	4771	233.973014996114	0.05
2	4772	234.045013438	0.05
2	4773	234.073014996114	0.05
2	4775	234.173014996114	0.05
2	4777	234.273014996114	0.05
2	4779	234.373014996114	0.05
2	4783	234.473014996114	0.05
2	4785	234.573014996114	0.05
2	4786	234.621001702	0.05
2	4788	234.673014996114	0.05
2	4791	234.773014996114	0.05
2	4794	234.873014996114	0.05
2	4797	234.973014996114	0.0495
2	4797	234.973014996114	0.0495
2	4799	235.073014996114	0.0499
2	4801	235.149432817	0.05
2	4802	235.173014996114	0.05
2	4805	235.273014996114	0.05
2	4808	235.373014996114	0.05
2	4811	235.473014996114	0.05
2	4813	235.573014996114	0.05
2	4813	235.579269424	0.05
2	4816	235.673014996114	0.05
2	4819	235.773014996114	0.05
2	4822	235.873014996114	0.05
2	4825	235.973014996114	0.05
2	4827	236.073014996114	0.0495
2	4827	236.073014996114	0.0495
2	4830	236.173014996114	0.0499
2	4831	236.239355821	0.05
2	4832	236.273014996114	0.05
2	4834	236.373014996114	0.05
2	4836	236.473014996114	0.05
2	4838	236.573014996114	0.05
2	4840	236.673014996114	0.05
2	4841	236.751357799	0.05
2	4842	236.773014996114	0.05
2	4844	236.873014996114	0.05
2	4846	236.973014996114	0.05
2	4848	237.073014996114	0.05
2	4850	237.173014996114	0.05
2	4850	237.228428797	0.05
2	4852	237.273014996114	0.05
2	4854	237.373014996114	0.05
2	4856	237.473014996114	0.05
2	4858	237.573014996114	0.05
2	4860	237.673014996114	0.05
2	4862	237.773014996114	0.05
2	4862	237.826682032	0.05
2	4864	237.873014996114	0.05
2	4866	237.973014996114	0.05
2	4868	238.073014996114	0.05
2	4870	238.173014996114	0.05
2	4872	238.273014996114	0.05
2	4872	238.333503865	0.05
2	4874	238.373014996114	0.05
2	4876	238.473014996114	0.05
2	4878	238.573014996114	0.05
2	4880	238.673014996114	0.05
2	4882	238.773014996114	0.05
2	4884	238.873014996114	0.05
2	4884	238.918655128	0.05
2	4886	238.973014996114	0.05
2	4888	239.073014996114	0.05
2	4890	239.173014996114	0.05
2	4892	239.273014996114	0.05
2	4894	239.373014996114	0.05
2	4896	239.473014996114	0.05
2	4896	239.491215982	0.05
2	4898	239.573014996114	0.05
2	4900	239.673014996114	0.05
2	4902	239.773014996114	0.05
2	4904	239.873014996114	0.05
2	4906	239.973014996114	0.05
2	4906	240.009655924	0.05
2	4908	240.073014996114	0.05
2	4910	240.173014996114	0.05
2	4912	240.273014996114	0.05
2	4914	240.373014996114	0.05
2	4916	240.473014996114	0.05
2	4916	240.476651824	0.05
2	4918	240.573014996114	0.05
2	4920	240.673014996114	0.05
2	4922	240.773014996114	0.05
2	4924	240.873014996114	0.05
2	4925	240.955007812	0.05
2	4926	240.973014996114	0.05
2	4928	241.073014996114	0.05
2	4930	241.173014996114	0.05
2	4932	241.273014996114	0.05
2	4934	241.373014996114	0.05
2	4934	241.379147326	0.05
2	4936	241.473014996114	0.05
2	4938	241.573014996114	0.05
2	4939	241.634408043742	0.05
2	4941	241.734408043742	0.0495
2	4941	241.734408043742	0.0495
2	4942	241.803681214	0.049777092681032
2	4943	241.834408043742	0.0499
2	4945	241.934408043742	0.05
2	4947	242.034408043742	0.05
2	4949	242.134408043742	0.05
2	4951	242.234408043742	0.05
2	4952	242.281337026	0.05
2	4953	242.334408043742	0.05
2	4955	242.434408043742	0.05
2	4957	242.534408043742	0.05
2	4959	242.634408043742	0.05
2	4961	242.734408043742	0.05
2	4963	242.834408043742	0.05
2	4964	242.837274739	0.05
2	4965	242.934408043742	0.05
2	4967	243.034408043742	0.05
2	4969	243.134408043742	0.0495
2	4969	243.134408043742	0.0495
2	4971	243.234408043742	0.0499
2	4972	243.322921591	0.05
2	4973	243.334408043742	0.05
2	4975	243.434408043742	0.05
2	4977	243.534408043742	0.05
2	4979	243.634408043742	0.05
2	4981	243.734408043742	0.05
2	4983	243.834408043742	0.05
2	4984	243.869192821	0.05
2	4985	243.934408043742	0.05
2	4987	244.034408043742	0.05
2	4989	244.134408043742	0.05
2	4991	244.234408043742	0.05
2	4992	244.318202449	0.05
2	4993	244.334408043742	0.05
2	4995	244.434408043742	0.05
2	4997	244.534408043742	0.0495
2	4997	244.534408043742	0.0495
2	4999	244.634408043742	0.0499
2	5000	244.733800981	0.05
2	5001	244.734408043742	0.05
2	5003	244.834408043742	0.05
2	5005	244.934408043742	0.05
2	5007	245.034408043742	0.05
2	5009	245.134408043742	0.05
2	5010	245.164437841	0.05
2	5011	245.234408043742	0.05
2	5013	245.334408043742	0.05
2	5015	245.434408043742	0.05
2	5017	245.534408043742	0.05
2	5018	245.595849187	0.05
2	5019	245.634408043742	0.05
2	5021	245.734408043742	0.05
2	5023	245.834408043742	0.05
2	5024	245.847089029	0.05
2	5025	245.934408043742	0.05
2	5027	246.034408043742	0.05
2	5029	246.134408043742	0.05
2	5031	246.234408043742	0.05
2	5032	246.302613241	0.05
2	5033	246.334408043742	0.05
2	5035	246.434408043742	0.05
2	5037	246.534408043742	0.05
2	5039	246.634408043742	0.05
2	5041	246.734408043742	0.05
2	5043	246.834408043742	0.05
2	5044	246.86769385	0.05
2	5044	246.934408043742	0.05
3	0	0	0.004
3	945	46.974101355068	0
3	948	47.051710275284	0.004
3	1267	62.954296634439	0
3	1740	86.5578279361	0.004
3	3645	178.874670966433	0
3	3890	191.034705148587	0.004
3	4130	202.662486940824	0
3	4511	221.550404705954	0.004
4	0	0	0.004
4	461	23.08057828677	0
4	534	26.633716071587	0.004
4	860	42.756428350736	0
4	2515	125.022649107223	0.004
4	3559	174.636708388908	0
4	4781	234.445812367439	0.004
5	0	0	0.004
5	945	46.974101355068	0
5	948	47.051710275284	0.004
5	1267	62.954296634439	0
5	1740	86.5578279361	0.004
5	3645	178.874670966433	0
5	3890	191.034705148587	0.004
5	4130	202.662486940824	0
5	4511	221.550404705954	0.004

