version 2
run Mysterio_ex2-0-20210822-16:16:10-10970
attr configname Mysterio_ex2
attr datetime 20210822-16:16:10
attr experiment Mysterio_ex2
attr inifile omnetpp.ini
attr iterationvars ""
attr iterationvarsf ""
attr measurement ""
attr network MysterioCommunication2
attr processid 10970
attr repetition 0
attr replication #0
attr resultdir results
attr runnumber 0
attr seedset 0
param *.host[*].mobility.numeroDrones 2
param *.numHosts 2
param *.host[*].osgModel "\"3d/drone.ive.100.scale.0,0,90.rot\""
param *.basestation.osgModel "\"3d/car.ive.50.scale.0,0,90.rot\""
param *.canvasVisualizer.energyStorageVisualizer.displayEnergyStorages true
param *.host[*].hasStatus true
param *.host[*].energyStorage.typename "\"SimpleEpEnergyStorage\""
param *.host[*].wlan[*].radio.energyConsumer.typename "\"StateBasedEpEnergyConsumer\""
param *.host[*].energyManagement.typename "\"SimpleEpEnergyManagement\""
param *.host[*].energyStorage.nominalCapacity 0.05J
param *.host[*].energyManagement.nodeShutdownCapacity "0.1 * energyStorage.nominalCapacity"
param *.host[*].energyManagement.nodeStartCapacity "0.5 * energyStorage.nominalCapacity"
param *.host[*].energyStorage.initialCapacity 0.05J
param *.host[*].energyGenerator.typename "\"AlternatingEpEnergyGenerator\""
param *.host[*].energyGenerator.powerGeneration 4mW
param *.host[*].energyGenerator.sleepInterval exponential(25s)
param *.host[*].energyGenerator.generationInterval exponential(25s)
param *.host[*].mobility.typename "\"UAVMobility\""
param *.host[*].mobility.changeInterval 1s
param *.host[*].mobility.initialMovementHeading "uniform(0deg, 360deg)"
param *.host[*].mobility.initialMovementElevation "uniform(-90deg, 90deg)"
param *.host[*].mobility.angleDelta uniform(-10deg,10deg)
param *.host[*].mobility.rotationAxisAngle uniform(-10deg,10deg)
param *.host[*].mobility.speed uniform(10mps,20mps)
param *.host[*].mobility.faceForward false
param *.host[*].mobility.initialX 220m
param *.host[*].mobility.initialY 220m
param *.host[*].mobility.initialZ 80m
param *.visualizer.osgVisualizer.typename "\"IntegratedOsgVisualizer\""
param *.visualizer.osgVisualizer.sceneVisualizer.clearColor "\"skyblue\""
param *.visualizer.osgVisualizer.sceneVisualizer.sceneImage "\"showcases/desert\""
param *.visualizer.osgVisualizer.sceneVisualizer.sceneImageSize 5000m
param *.visualizer.osgVisualizer.sceneVisualizer.axisLength 1000m
param *.visualizer.osgVisualizer.sceneVisualizer.sceneMinX -2000m
param *.visualizer.osgVisualizer.sceneVisualizer.sceneMinY -2000m
param *.visualizer.osgVisualizer.sceneVisualizer.sceneMinZ 0m
param *.visualizer.osgVisualizer.sceneVisualizer.sceneMaxX 3000m
param *.visualizer.osgVisualizer.sceneVisualizer.sceneMaxY 3000m
param *.visualizer.osgVisualizer.sceneVisualizer.sceneMaxZ 1000m
param *.visualizer.osgVisualizer.networkNodeVisualizer.displayModuleName false
param *.visualizer.*.mobilityVisualizer.displayMobility true
param *.visualizer.*.mobilityVisualizer.displayPositions true
param *.visualizer.*.mobilityVisualizer.displayOrientations false
param *.visualizer.*.mobilityVisualizer.displayVelocities true
param *.visualizer.*.mobilityVisualizer.displayMovementTrails true
param *.visualizer.*.mobilityVisualizer.animationSpeed 3
param **.constraintAreaMinX 0m
param **.constraintAreaMinY 0m
param **.constraintAreaMinZ 0m
param **.constraintAreaMaxX 1000m
param **.constraintAreaMaxY 1000m
param **.constraintAreaMaxZ 1000m
param **.networkConfiguratorModule "\"\""

vector 0 MysterioCommunication2.host[0].energyStorage residualEnergyCapacity:vector ETV
attr interpolationmode linear
attr source residualEnergyCapacityChanged
attr title "Residual energy capacity, vector"
vector 1 MysterioCommunication2.host[0].energyGenerator powerGeneration:vector ETV
attr interpolationmode sample-hold
attr source powerGenerationChanged
attr title "Power generation, vector"
vector 2 MysterioCommunication2.host[1].energyStorage residualEnergyCapacity:vector ETV
attr interpolationmode linear
attr source residualEnergyCapacityChanged
attr title "Residual energy capacity, vector"
vector 3 MysterioCommunication2.host[1].energyGenerator powerGeneration:vector ETV
attr interpolationmode sample-hold
attr source powerGenerationChanged
attr title "Power generation, vector"
vector 4 MysterioCommunication2.host[0].energyStorage powerGeneration:vector ETV
attr interpolationmode sample-hold
attr source powerGenerationChanged
attr title "Power generation, vector"
vector 5 MysterioCommunication2.host[1].energyStorage powerGeneration:vector ETV
attr interpolationmode sample-hold
attr source powerGenerationChanged
attr title "Power generation, vector"
0	0	0	0.05
0	0	0.1	0.05
0	2	0.158061793	0.05
0	3	0.2	0.05
0	5	0.3	0.05
0	7	0.4	0.05
0	9	0.5	0.05
0	11	0.6	0.05
0	12	0.693344941	0.05
0	13	0.7	0.05
0	15	0.8	0.05
0	17	0.9	0.05
0	19	1	0.05
0	21	1.1	0.05
0	23	1.2	0.05
0	25	1.3	0.05
0	27	1.4	0.05
0	29	1.5	0.05
0	31	1.6	0.05
0	33	1.7	0.05
0	35	1.8	0.05
0	37	1.9	0.05
0	38	1.997364733	0.05
0	39	2	0.05
0	41	2.1	0.05
0	43	2.2	0.05
0	45	2.3	0.05
0	47	2.4	0.05
0	48	2.402379601	0.05
0	49	2.5	0.05
0	50	2.599692823	0.05
0	51	2.6	0.05
0	53	2.7	0.05
0	55	2.8	0.05
0	56	2.825475466	0.05
0	57	2.9	0.05
0	59	3	0.05
0	61	3.1	0.05
0	63	3.2	0.05
0	64	3.21806458	0.05
0	65	3.3	0.05
0	67	3.4	0.05
0	68	3.421693501	0.05
0	69	3.5	0.05
0	71	3.6	0.05
0	73	3.7	0.05
0	75	3.8	0.05
0	77	3.9	0.05
0	78	3.927118324	0.05
0	79	4	0.05
0	81	4.1	0.05
0	83	4.2	0.05
0	85	4.3	0.05
0	86	4.398227137	0.05
0	87	4.4	0.05
0	89	4.5	0.05
0	91	4.6	0.05
0	93	4.7	0.05
0	94	4.797018232	0.05
0	95	4.8	0.05
0	97	4.9	0.05
0	99	5	0.05
0	101	5.1	0.05
0	103	5.2	0.05
0	105	5.3	0.05
0	106	5.304484249	0.05
0	107	5.4	0.05
0	109	5.5	0.05
0	111	5.6	0.05
0	113	5.7	0.05
0	114	5.711394802	0.05
0	115	5.8	0.05
0	117	5.9	0.05
0	119	6	0.05
0	120	6.005509669	0.05
0	121	6.1	0.05
0	123	6.2	0.05
0	125	6.3	0.05
0	127	6.4	0.05
0	128	6.442465375	0.05
0	129	6.5	0.05
0	131	6.6	0.05
0	133	6.7	0.05
0	134	6.741362665	0.05
0	135	6.8	0.05
0	137	6.9	0.05
0	139	7	0.05
0	141	7.1	0.05
0	143	7.2	0.05
0	144	7.246210861	0.05
0	145	7.3	0.05
0	147	7.4	0.05
0	149	7.5	0.05
0	150	7.526176144	0.05
0	151	7.6	0.05
0	153	7.7	0.05
0	155	7.8	0.05
0	157	7.9	0.05
0	159	8	0.05
0	160	8.039290759	0.05
0	161	8.1	0.05
0	163	8.2	0.05
0	165	8.3	0.05
0	166	8.313225223	0.05
0	167	8.4	0.05
0	169	8.5	0.05
0	171	8.6	0.05
0	172	8.602897924	0.05
0	173	8.7	0.05
0	175	8.8	0.05
0	177	8.9	0.05
0	179	9	0.05
0	180	9.05253049	0.05
0	181	9.1	0.05
0	183	9.2	0.05
0	185	9.3	0.05
0	187	9.4	0.05
0	189	9.5	0.05
0	190	9.505115791	0.0495
0	190	9.505115791	0.0495
0	191	9.6	0.049879536836
0	193	9.7	0.05
0	194	9.788218828	0.05
0	195	9.8	0.05
0	197	9.9	0.05
0	199	10	0.05
0	200	10.071862459	0.05
0	201	10.1	0.05
0	203	10.2	0.05
0	205	10.3	0.05
0	207	10.4	0.05
0	209	10.5	0.05
0	211	10.6	0.05
0	212	10.656281911	0.05
0	213	10.7	0.05
0	215	10.8	0.05
0	217	10.9	0.05
0	219	11	0.05
0	221	11.1	0.05
0	223	11.2	0.05
0	224	11.271424345	0.05
0	225	11.3	0.05
0	227	11.4	0.05
0	229	11.5	0.05
0	231	11.6	0.05
0	233	11.7	0.05
0	234	11.726933791	0.05
0	235	11.8	0.05
0	237	11.9	0.05
0	239	12	0.05
0	240	12.01301341	0.05
0	241	12.1	0.05
0	243	12.2	0.05
0	245	12.3	0.05
0	247	12.4	0.05
0	249	12.5	0.05
0	250	12.50635309	0.05
0	251	12.6	0.05
0	253	12.7	0.05
0	255	12.8	0.05
0	257	12.9	0.05
0	259	13	0.05
0	260	13.021075318	0.05
0	261	13.1	0.05
0	263	13.2	0.05
0	265	13.3	0.05
0	267	13.4	0.05
0	269	13.5	0.05
0	270	13.5852832	0.05
0	271	13.6	0.05
0	273	13.7	0.05
0	275	13.8	0.05
0	277	13.9	0.05
0	279	14	0.05
0	281	14.1	0.05
0	282	14.191966771	0.05
0	283	14.2	0.05
0	285	14.3	0.05
0	287	14.4	0.05
0	289	14.5	0.05
0	291	14.6	0.05
0	292	14.667557494	0.05
0	293	14.7	0.05
0	295	14.8	0.05
0	297	14.9	0.05
0	299	15	0.05
0	301	15.1	0.05
0	303	15.2	0.05
0	305	15.3	0.05
0	306	15.326776951	0.05
0	307	15.4	0.05
0	309	15.5	0.05
0	311	15.6	0.05
0	313	15.7	0.05
0	315	15.8	0.05
0	316	15.898780192	0.05
0	317	15.9	0.05
0	319	16	0.05
0	321	16.1	0.05
0	323	16.2	0.05
0	325	16.3	0.05
0	326	16.382877145	0.05
0	327	16.4	0.05
0	329	16.5	0.05
0	331	16.6	0.05
0	333	16.7	0.05
0	335	16.8	0.05
0	337	16.9	0.05
0	338	16.987455148	0.05
0	339	17	0.05
0	341	17.1	0.05
0	343	17.2	0.05
0	345	17.3	0.05
0	347	17.4	0.05
0	349	17.5	0.05
0	350	17.544318895	0.05
0	351	17.6	0.05
0	353	17.7	0.05
0	355	17.8	0.05
0	356	17.83936009	0.05
0	357	17.9	0.05
0	359	18	0.05
0	361	18.1	0.05
0	363	18.2	0.05
0	364	18.262606453	0.05
0	365	18.3	0.05
0	367	18.4	0.05
0	369	18.5	0.05
0	371	18.6	0.05
0	372	18.681972034	0.05
0	373	18.7	0.05
0	375	18.8	0.05
0	377	18.9	0.05
0	379	19	0.05
0	381	19.1	0.05
0	382	19.176684901	0.05
0	383	19.2	0.05
0	385	19.3	0.05
0	387	19.4	0.05
0	388	19.449123175	0.05
0	389	19.5	0.05
0	391	19.6	0.05
0	393	19.7	0.05
0	395	19.8	0.05
0	397	19.9	0.05
0	398	19.975400122	0.05
0	399	20	0.05
0	401	20.1	0.05
0	403	20.2	0.05
0	405	20.3	0.05
0	407	20.4	0.05
0	409	20.5	0.05
0	410	20.536794976	0.05
0	411	20.6	0.05
0	413	20.7	0.05
0	415	20.8	0.05
0	417	20.9	0.05
0	418	20.958395878	0.05
0	419	21	0.05
0	421	21.1	0.05
0	423	21.2	0.05
0	425	21.3	0.05
0	426	21.335431462	0.05
0	427	21.4	0.05
0	429	21.5	0.05
0	431	21.6	0.05
0	433	21.7	0.05
0	435	21.8	0.05
0	436	21.829029703	0.05
0	437	21.9	0.05
0	439	22	0.05
0	441	22.1	0.05
0	442	22.107045313	0.0495
0	442	22.107045313	0.0495
0	443	22.2	0.049871818748
0	445	22.3	0.05
0	447	22.4	0.05
0	449	22.5	0.05
0	450	22.558223764	0.05
0	451	22.6	0.05
0	453	22.7	0.05
0	455	22.8	0.05
0	457	22.9	0.05
0	459	23	0.05
0	460	23.079383335	0.05
0	461	23.08057828677	0.05
0	462	23.1	0.05
0	464	23.2	0.05
0	466	23.3	0.05
0	467	23.363303965	0.05
0	468	23.4	0.05
0	470	23.5	0.0495
0	470	23.5	0.0495
0	472	23.6	0.0495
0	474	23.7	0.0495
0	476	23.8	0.0495
0	477	23.828109736	0.0495
0	478	23.9	0.0495
0	480	24	0.0495
0	482	24.1	0.0495
0	484	24.2	0.0495
0	486	24.3	0.0495
0	487	24.349958743	0.0495
0	488	24.4	0.0495
0	490	24.5	0.0495
0	492	24.6	0.0495
0	494	24.7	0.0495
0	496	24.8	0.0495
0	498	24.9	0.0495
0	499	24.93291604	0.0495
0	500	25	0.0495
0	502	25.1	0.0495
0	504	25.2	0.0495
0	506	25.3	0.0495
0	507	25.381606147	0.0495
0	508	25.4	0.0495
0	510	25.5	0.0495
0	512	25.6	0.0495
0	513	25.664212813	0.0495
0	514	25.7	0.0495
0	516	25.8	0.0495
0	518	25.9	0.0495
0	519	25.962026242	0.0495
0	520	26	0.0495
0	522	26.1	0.0495
0	524	26.2	0.0495
0	526	26.3	0.049005
0	526	26.3	0.049005
0	527	26.380582321	0.049005
0	528	26.4	0.049005
0	530	26.5	0.049005
0	532	26.6	0.049005
0	534	26.7	0.049005
0	536	26.8	0.049005
0	537	26.836347379	0.049005
0	538	26.9	0.049005
0	540	27	0.049005
0	542	27.1	0.049005
0	544	27.2	0.049005
0	545	27.278679985	0.049005
0	546	27.3	0.049005
0	548	27.4	0.049005
0	550	27.5	0.049005
0	552	27.6	0.049005
0	554	27.7	0.04851495
0	554	27.7	0.04851495
0	555	27.751237915	0.04851495
0	556	27.8	0.04851495
0	558	27.9	0.04851495
0	560	28	0.04851495
0	561	28.038815149	0.04851495
0	562	28.1	0.04851495
0	564	28.2	0.04851495
0	565	28.290226255	0.04851495
0	566	28.3	0.04851495
0	568	28.4	0.04851495
0	570	28.5	0.04851495
0	571	28.568459431	0.04851495
0	572	28.6	0.04851495
0	574	28.7	0.04851495
0	576	28.8	0.04851495
0	578	28.9	0.04851495
0	580	29	0.0480298005
0	580	29	0.0480298005
0	581	29.081691022	0.0480298005
0	582	29.1	0.0480298005
0	584	29.2	0.0480298005
0	586	29.3	0.0480298005
0	587	29.367174574	0.0480298005
0	588	29.4	0.0480298005
0	590	29.5	0.0480298005
0	592	29.6	0.0480298005
0	594	29.7	0.0480298005
0	596	29.8	0.0480298005
0	597	29.851430062	0.0480298005
0	598	29.9	0.0480298005
0	600	30	0.0480298005
0	602	30.1	0.0480298005
0	604	30.2	0.0480298005
0	605	30.285991795	0.0480298005
0	606	30.3	0.047549502495
0	606	30.3	0.047549502495
0	608	30.4	0.047549502495
0	610	30.5	0.047549502495
0	611	30.585400852	0.047549502495
0	612	30.6	0.047549502495
0	614	30.7	0.047549502495
0	616	30.8	0.047549502495
0	618	30.9	0.047549502495
0	620	31	0.047549502495
0	621	31.051028731	0.047549502495
0	622	31.1	0.047549502495
0	624	31.2	0.047549502495
0	626	31.3	0.047549502495
0	628	31.4	0.047549502495
0	630	31.5	0.047549502495
0	632	31.6	0.047549502495
0	633	31.603581148	0.047549502495
0	634	31.7	0.04707400747005
0	634	31.7	0.04707400747005
0	636	31.8	0.04707400747005
0	638	31.9	0.04707400747005
0	640	32	0.04707400747005
0	642	32.1	0.04707400747005
0	644	32.2	0.04707400747005
0	645	32.23839232	0.04707400747005
0	646	32.3	0.04707400747005
0	648	32.4	0.04707400747005
0	650	32.5	0.04707400747005
0	652	32.6	0.04707400747005
0	654	32.7	0.04707400747005
0	656	32.8	0.04707400747005
0	657	32.832072769	0.04707400747005
0	658	32.9	0.04707400747005
0	660	33	0.04707400747005
0	662	33.1	0.04707400747005
0	664	33.2	0.04660326739535
0	664	33.2	0.04660326739535
0	666	33.3	0.04660326739535
0	668	33.4	0.04660326739535
0	670	33.5	0.04660326739535
0	671	33.511486513	0.04660326739535
0	672	33.6	0.04660326739535
0	674	33.7	0.04660326739535
0	676	33.8	0.04660326739535
0	678	33.9	0.04660326739535
0	680	34	0.04660326739535
0	681	34.099821637	0.04660326739535
0	682	34.1	0.04660326739535
0	684	34.2	0.04660326739535
0	686	34.3	0.04660326739535
0	688	34.4	0.04660326739535
0	690	34.5	0.04660326739535
0	691	34.573078993	0.04660326739535
0	692	34.6	0.046137234721396
0	692	34.6	0.046137234721396
0	694	34.7	0.046137234721396
0	696	34.8	0.046137234721396
0	698	34.9	0.046137234721396
0	700	35	0.046137234721396
0	701	35.079514171	0.046137234721396
0	702	35.1	0.046137234721396
0	704	35.2	0.046137234721396
0	706	35.3	0.046137234721396
0	707	35.359894747	0.046137234721396
0	708	35.4	0.046137234721396
0	710	35.5	0.046137234721396
0	712	35.6	0.046137234721396
0	714	35.7	0.046137234721396
0	716	35.8	0.046137234721396
0	717	35.857949962	0.046137234721396
0	718	35.9	0.046137234721396
0	720	36	0.045675862374182
0	720	36	0.045675862374182
0	722	36.1	0.045675862374182
0	724	36.2	0.045675862374182
0	726	36.3	0.045675862374182
0	727	36.311288842	0.045675862374182
0	728	36.4	0.045675862374182
0	730	36.5	0.045675862374182
0	732	36.6	0.045675862374182
0	734	36.7	0.045675862374182
0	735	36.771479839	0.045675862374182
0	736	36.8	0.045675862374182
0	738	36.9	0.045675862374182
0	740	37	0.045675862374182
0	742	37.1	0.045675862374182
0	744	37.2	0.045675862374182
0	745	37.227346558	0.045675862374182
0	746	37.3	0.045675862374182
0	748	37.4	0.04521910375044
0	748	37.4	0.04521910375044
0	750	37.5	0.04521910375044
0	751	37.53250681	0.04521910375044
0	752	37.6	0.04521910375044
0	754	37.7	0.04521910375044
0	756	37.8	0.04521910375044
0	758	37.9	0.04521910375044
0	759	37.977939124	0.04521910375044
0	760	38	0.04521910375044
0	762	38.1	0.04521910375044
0	764	38.2	0.04521910375044
0	766	38.3	0.04521910375044
0	768	38.4	0.04521910375044
0	769	38.474306077	0.04521910375044
0	770	38.5	0.04521910375044
0	772	38.6	0.04521910375044
0	774	38.7	0.04521910375044
0	776	38.8	0.044766912712936
0	776	38.8	0.044766912712936
0	778	38.9	0.044766912712936
0	779	38.964685798	0.044766912712936
0	780	39	0.044766912712936
0	782	39.1	0.044766912712936
0	784	39.2	0.044766912712936
0	786	39.3	0.044766912712936
0	788	39.4	0.044766912712936
0	789	39.439583911	0.044766912712936
0	790	39.5	0.044766912712936
0	792	39.6	0.044766912712936
0	794	39.7	0.044766912712936
0	796	39.8	0.044766912712936
0	797	39.884883805	0.044766912712936
0	798	39.9	0.044766912712936
0	800	40	0.044766912712936
0	802	40.1	0.044766912712936
0	804	40.2	0.044319243585806
0	804	40.2	0.044319243585806
0	806	40.3	0.044319243585806
0	807	40.340997928	0.044319243585806
0	808	40.4	0.044319243585806
0	810	40.5	0.044319243585806
0	812	40.6	0.044319243585806
0	814	40.7	0.044319243585806
0	815	40.72866562	0.044319243585806
0	816	40.8	0.044319243585806
0	818	40.9	0.044319243585806
0	820	41	0.044319243585806
0	821	41.012886667	0.044319243585806
0	822	41.1	0.044319243585806
0	824	41.2	0.044319243585806
0	826	41.3	0.044319243585806
0	828	41.4	0.044319243585806
0	829	41.453020252	0.044319243585806
0	830	41.5	0.043876051149948
0	830	41.5	0.043876051149948
0	832	41.6	0.043876051149948
0	834	41.7	0.043876051149948
0	836	41.8	0.043876051149948
0	838	41.9	0.043876051149948
0	839	41.950673767	0.043876051149948
0	840	42	0.043876051149948
0	842	42.1	0.043876051149948
0	844	42.2	0.043876051149948
0	845	42.216593836	0.043876051149948
0	846	42.3	0.043876051149948
0	848	42.4	0.043876051149948
0	850	42.5	0.043876051149948
0	852	42.6	0.043876051149948
0	853	42.638516827	0.043876051149948
0	854	42.7	0.043876051149948
0	856	42.8	0.043876051149948
0	858	42.9	0.043437290638449
0	858	42.9	0.043437290638449
0	860	43	0.043437290638449
0	862	43.1	0.043437290638449
0	863	43.129475764	0.043437290638449
0	864	43.2	0.043437290638449
0	866	43.3	0.043437290638449
0	868	43.4	0.043437290638449
0	870	43.5	0.043437290638449
0	872	43.6	0.043437290638449
0	873	43.615685131	0.043437290638449
0	874	43.7	0.043437290638449
0	876	43.8	0.043437290638449
0	878	43.9	0.043437290638449
0	880	44	0.043437290638449
0	882	44.1	0.043437290638449
0	883	44.178508324	0.043437290638449
0	884	44.2	0.043437290638449
0	886	44.3	0.043002917732064
0	886	44.3	0.043002917732064
0	888	44.4	0.043002917732064
0	890	44.5	0.043002917732064
0	891	44.564098675	0.043002917732064
0	892	44.6	0.043002917732064
0	894	44.7	0.043002917732064
0	896	44.8	0.043002917732064
0	898	44.9	0.043002917732064
0	899	44.988346633	0.043002917732064
0	900	45	0.043002917732064
0	902	45.1	0.043002917732064
0	904	45.2	0.043002917732064
0	906	45.3	0.043002917732064
0	908	45.4	0.043002917732064
0	909	45.422702932	0.043002917732064
0	910	45.5	0.043002917732064
0	912	45.6	0.043002917732064
0	914	45.7	0.042572888554744
0	914	45.7	0.042572888554744
0	916	45.8	0.042572888554744
0	917	45.856536577	0.042572888554744
0	918	45.9	0.042572888554744
0	920	46	0.042572888554744
0	922	46.1	0.042572888554744
0	924	46.2	0.042572888554744
0	926	46.3	0.042572888554744
0	927	46.32337111	0.042572888554744
0	928	46.4	0.042572888554744
0	930	46.5	0.042572888554744
0	932	46.6	0.042572888554744
0	934	46.7	0.042572888554744
0	936	46.8	0.042572888554744
0	938	46.9	0.042572888554744
0	939	46.949169523	0.042572888554744
0	941	47	0.042572888554744
0	943	47.1	0.042572888554744
0	945	47.2	0.042572888554744
0	947	47.3	0.042572888554744
0	949	47.4	0.042572888554744
0	951	47.5	0.042572888554744
0	952	47.520383152	0.042572888554744
0	953	47.6	0.042572888554744
0	955	47.7	0.042572888554744
0	957	47.8	0.042572888554744
0	959	47.9	0.042572888554744
0	961	48	0.042572888554744
0	963	48.1	0.042572888554744
0	964	48.121913215	0.042572888554744
0	965	48.2	0.042572888554744
0	967	48.3	0.042572888554744
0	969	48.4	0.042572888554744
0	971	48.5	0.042572888554744
0	973	48.6	0.042572888554744
0	975	48.7	0.042572888554744
0	977	48.8	0.042572888554744
0	979	48.9	0.042572888554744
0	980	48.906956764	0.042572888554744
0	981	49	0.042572888554744
0	983	49.1	0.042572888554744
0	985	49.108763480306	0.042572888554744
0	987	49.208763480306	0.042572888554744
0	989	49.308763480306	0.042572888554744
0	991	49.408763480306	0.042572888554744
0	993	49.508763480306	0.042572888554744
0	995	49.608763480306	0.042572888554744
0	995	49.613409673	0.042572888554744
0	997	49.708763480306	0.042572888554744
0	999	49.808763480306	0.042572888554744
0	1001	49.908763480306	0.042572888554744
0	1002	50.002147021	0.042572888554744
0	1003	50.008763480306	0.042572888554744
0	1005	50.108763480306	0.042572888554744
0	1007	50.208763480306	0.042572888554744
0	1007	50.263289785	0.042572888554744
0	1009	50.308763480306	0.042572888554744
0	1011	50.408763480306	0.042572888554744
0	1013	50.508763480306	0.042572888554744
0	1015	50.608763480306	0.042572888554744
0	1017	50.708763480306	0.042572888554744
0	1017	50.725250689	0.042572888554744
0	1019	50.808763480306	0.042572888554744
0	1021	50.908763480306	0.042572888554744
0	1023	51.008763480306	0.042572888554744
0	1024	51.108124195	0.042572888554744
0	1025	51.108763480306	0.042572888554744
0	1027	51.208763480306	0.042572888554744
0	1029	51.308763480306	0.042572888554744
0	1031	51.408763480306	0.042572888554744
0	1033	51.508763480306	0.042572888554744
0	1033	51.525954187	0.042572888554744
0	1035	51.608763480306	0.042572888554744
0	1037	51.708763480306	0.042572888554744
0	1038	51.787363594	0.042572888554744
0	1039	51.808763480306	0.042572888554744
0	1041	51.908763480306	0.042572888554744
0	1043	52.008763480306	0.042572888554744
0	1045	52.108763480306	0.042572888554744
0	1046	52.204102096	0.042572888554744
0	1047	52.208763480306	0.042572888554744
0	1049	52.308763480306	0.042572888554744
0	1051	52.408763480306	0.042572888554744
0	1053	52.508763480306	0.042572888554744
0	1056	52.608763480306	0.042147159669196
0	1056	52.608763480306	0.042147159669196
0	1056	52.675134154	0.042147159669196
0	1059	52.708763480306	0.042147159669196
0	1062	52.808763480306	0.042147159669196
0	1064	52.908763480306	0.042147159669196
0	1067	53.008763480306	0.042147159669196
0	1070	53.108763480306	0.042147159669196
0	1071	53.198914435	0.042147159669196
0	1072	53.208763480306	0.042147159669196
0	1074	53.308763480306	0.042147159669196
0	1076	53.408763480306	0.042147159669196
0	1078	53.508763480306	0.042147159669196
0	1080	53.608763480306	0.042147159669196
0	1082	53.708763480306	0.042147159669196
0	1082	53.760757483	0.042147159669196
0	1084	53.808763480306	0.041725688072504
0	1084	53.808763480306	0.041725688072504
0	1086	53.908763480306	0.041725688072504
0	1088	54.008763480306	0.041725688072504
0	1090	54.108763480306	0.041725688072504
0	1091	54.202831846	0.041725688072504
0	1092	54.208763480306	0.041725688072504
0	1094	54.308763480306	0.041725688072504
0	1096	54.408763480306	0.041725688072504
0	1097	54.498587467	0.041725688072504
0	1098	54.508763480306	0.041725688072504
0	1100	54.608763480306	0.041725688072504
0	1102	54.708763480306	0.041725688072504
0	1104	54.808763480306	0.041725688072504
0	1106	54.908763480306	0.041725688072504
0	1108	55.008763480306	0.041725688072504
0	1108	55.035790156	0.041725688072504
0	1110	55.108763480306	0.041725688072504
0	1112	55.208763480306	0.041308431191779
0	1112	55.208763480306	0.041308431191779
0	1114	55.308763480306	0.041308431191779
0	1116	55.408763480306	0.041308431191779
0	1116	55.478123161	0.041308431191779
0	1118	55.508763480306	0.041308431191779
0	1120	55.608763480306	0.041308431191779
0	1122	55.708763480306	0.041308431191779
0	1124	55.808763480306	0.041308431191779
0	1126	55.908763480306	0.041308431191779
0	1126	55.965771502	0.041308431191779
0	1128	56.008763480306	0.041308431191779
0	1130	56.108763480306	0.041308431191779
0	1132	56.208763480306	0.041308431191779
0	1134	56.308763480306	0.041308431191779
0	1135	56.39623639	0.041308431191779
0	1136	56.408763480306	0.041308431191779
0	1138	56.508763480306	0.041308431191779
0	1140	56.596605985863	0.040895346879862
0	1140	56.596605985863	0.040895346879862
0	1142	56.696605985863	0.040895346879862
0	1144	56.796605985863	0.040895346879862
0	1146	56.896605985863	0.040895346879862
0	1148	56.996605985863	0.040895346879862
0	1148	57.024326515	0.040895346879862
0	1150	57.096605985863	0.040895346879862
0	1152	57.196605985863	0.040895346879862
0	1154	57.296605985863	0.040895346879862
0	1156	57.396605985863	0.040895346879862
0	1158	57.496605985863	0.040895346879862
0	1160	57.596605985863	0.040895346879862
0	1160	57.658597768	0.040895346879862
0	1162	57.696605985863	0.040895346879862
0	1164	57.796605985863	0.040895346879862
0	1166	57.896605985863	0.040895346879862
0	1168	57.996605985863	0.040895346879862
0	1170	58.096605985863	0.040486393411063
0	1170	58.096605985863	0.040486393411063
0	1171	58.193880994	0.040486393411063
0	1172	58.196605985863	0.040486393411063
0	1174	58.296605985863	0.040486393411063
0	1176	58.396605985863	0.040486393411063
0	1178	58.496605985863	0.040486393411063
0	1180	58.596605985863	0.040486393411063
0	1182	58.696605985863	0.040486393411063
0	1184	58.796605985863	0.040486393411063
0	1184	58.85515339	0.040486393411063
0	1186	58.896605985863	0.040486393411063
0	1188	58.996605985863	0.040486393411063
0	1190	59.096605985863	0.040486393411063
0	1192	59.196605985863	0.040486393411063
0	1194	59.296605985863	0.040486393411063
0	1195	59.389644556	0.040486393411063
0	1196	59.396605985863	0.040486393411063
0	1198	59.496605985863	0.040081529476952
0	1198	59.496605985863	0.040081529476952
0	1200	59.596605985863	0.040081529476952
0	1202	59.696605985863	0.040081529476952
0	1204	59.796605985863	0.040081529476952
0	1204	59.816870002	0.040081529476952
0	1206	59.896605985863	0.040081529476952
0	1208	59.996605985863	0.040081529476952
0	1210	60.096605985863	0.040081529476952
0	1212	60.196605985863	0.040081529476952
0	1214	60.296605985863	0.040081529476952
0	1214	60.335569942	0.040081529476952
0	1216	60.396605985863	0.040081529476952
0	1218	60.496605985863	0.040081529476952
0	1220	60.596605985863	0.040081529476952
0	1222	60.696605985863	0.040081529476952
0	1224	60.796605985863	0.040081529476952
0	1224	60.839094814	0.040081529476952
0	1226	60.896605985863	0.039680714182183
0	1226	60.896605985863	0.039680714182183
0	1228	60.996605985863	0.039680714182183
0	1230	61.096605985863	0.039680714182183
0	1232	61.196605985863	0.039680714182183
0	1232	61.28426077	0.039680714182183
0	1234	61.296605985863	0.039680714182183
0	1236	61.396605985863	0.039680714182183
0	1238	61.496605985863	0.039680714182183
0	1240	61.596605985863	0.039680714182183
0	1242	61.696605985863	0.039680714182183
0	1242	61.735876138	0.039680714182183
0	1244	61.796605985863	0.039680714182183
0	1246	61.896605985863	0.039680714182183
0	1248	61.996605985863	0.039680714182183
0	1250	62.096605985863	0.039680714182183
0	1252	62.196605985863	0.039680714182183
0	1252	62.283699919	0.039680714182183
0	1254	62.296605985863	0.039283907040361
0	1254	62.296605985863	0.039283907040361
0	1256	62.396605985863	0.039283907040361
0	1258	62.496605985863	0.039283907040361
0	1260	62.596605985863	0.039283907040361
0	1262	62.696605985863	0.039283907040361
0	1262	62.744656267	0.039283907040361
0	1264	62.796605985863	0.039283907040361
0	1266	62.896605985863	0.039283907040361
0	1268	62.996605985863	0.039283907040361
0	1270	63.096605985863	0.039283907040361
0	1271	63.186843973	0.039283907040361
0	1272	63.196605985863	0.039283907040361
0	1274	63.296605985863	0.039283907040361
0	1276	63.396605985863	0.039283907040361
0	1276	63.483353908	0.039283907040361
0	1278	63.496605985863	0.039283907040361
0	1280	63.596605985863	0.039283907040361
0	1282	63.696605985863	0.038891067969957
0	1282	63.696605985863	0.038891067969957
0	1283	63.777579829157	0.038891067969957
0	1285	63.877579829157	0.038891067969957
0	1287	63.977579829157	0.038891067969957
0	1288	64.042029349	0.038891067969957
0	1289	64.077579829157	0.038891067969957
0	1291	64.177579829157	0.038891067969957
0	1293	64.277579829157	0.038891067969957
0	1295	64.377579829157	0.038891067969957
0	1297	64.477579829157	0.038891067969957
0	1298	64.512966139	0.038891067969957
0	1299	64.577579829157	0.038891067969957
0	1301	64.677579829157	0.038891067969957
0	1303	64.777579829157	0.038891067969957
0	1305	64.877579829157	0.038891067969957
0	1306	64.921756498	0.038891067969957
0	1307	64.977579829157	0.038891067969957
0	1309	65.077579829157	0.038891067969957
0	1311	65.177579829157	0.038891067969957
0	1313	65.277579829157	0.038891067969957
0	1314	65.350792273	0.038891067969957
0	1315	65.377579829157	0.038891067969957
0	1317	65.477579829157	0.038891067969957
0	1319	65.577579829157	0.038891067969957
0	1321	65.677579829157	0.038891067969957
0	1322	65.76303319	0.038891067969957
0	1323	65.777579829157	0.038891067969957
0	1325	65.877579829157	0.038891067969957
0	1327	65.977579829157	0.038891067969957
0	1329	66.077579829157	0.038891067969957
0	1331	66.177579829157	0.038891067969957
0	1331	66.181137298	0.038891067969957
0	1333	66.277579829157	0.038891067969957
0	1335	66.377579829157	0.038891067969957
0	1337	66.477579829157	0.038891067969957
0	1339	66.577579829157	0.038891067969957
0	1340	66.644802775	0.038891067969957
0	1341	66.677579829157	0.038891067969957
0	1343	66.777579829157	0.038891067969957
0	1345	66.877579829157	0.038891067969957
0	1347	66.977579829157	0.038891067969957
0	1349	67.077579829157	0.038891067969957
0	1350	67.104504568	0.038891067969957
0	1351	67.177579829157	0.038891067969957
0	1353	67.277579829157	0.038891067969957
0	1355	67.377579829157	0.038891067969957
0	1357	67.477579829157	0.038891067969957
0	1359	67.577579829157	0.038891067969957
0	1360	67.592747611	0.038891067969957
0	1361	67.677579829157	0.038891067969957
0	1363	67.777579829157	0.038891067969957
0	1365	67.877579829157	0.038891067969957
0	1367	67.977579829157	0.038891067969957
0	1369	68.077579829157	0.038891067969957
0	1371	68.177579829157	0.038891067969957
0	1372	68.205264544	0.038891067969957
0	1373	68.277579829157	0.038891067969957
0	1375	68.377579829157	0.038891067969957
0	1377	68.477579829157	0.038891067969957
0	1379	68.577579829157	0.038891067969957
0	1381	68.677579829157	0.038891067969957
0	1383	68.777579829157	0.038891067969957
0	1384	68.803754059	0.038891067969957
0	1385	68.877579829157	0.038891067969957
0	1387	68.977579829157	0.038891067969957
0	1389	69.077579829157	0.038891067969957
0	1391	69.177579829157	0.038891067969957
0	1393	69.277579829157	0.038891067969957
0	1394	69.371778703	0.038502157290258
0	1394	69.371778703	0.038502157290258
0	1395	69.377579829157	0.038502157290258
0	1397	69.477579829157	0.038502157290258
0	1399	69.577579829157	0.038502157290258
0	1401	69.677579829157	0.038502157290258
0	1403	69.771942819866	0.038502157290258
0	1404	69.859743955	0.038502157290258
0	1405	69.871942819866	0.038502157290258
0	1407	69.971942819866	0.038502157290258
0	1409	70.071942819866	0.038502157290258
0	1411	70.171942819866	0.038502157290258
0	1413	70.271942819866	0.038502157290258
0	1415	70.371942819866	0.038502157290258
0	1416	70.417724272	0.038502157290258
0	1417	70.471942819866	0.038502157290258
0	1419	70.571942819866	0.038502157290258
0	1421	70.671942819866	0.038502157290258
0	1423	70.771942819866	0.038502157290258
0	1424	70.857056335	0.038502157290258
0	1425	70.871942819866	0.038502157290258
0	1427	70.971942819866	0.038502157290258
0	1429	71.071942819866	0.038502157290258
0	1430	71.136532828	0.038502157290258
0	1431	71.171942819866	0.038502157290258
0	1433	71.271942819866	0.038502157290258
0	1435	71.371942819866	0.038502157290258
0	1437	71.471942819866	0.038502157290258
0	1439	71.571942819866	0.038502157290258
0	1439	71.582364586	0.038502157290258
0	1441	71.671942819866	0.038502157290258
0	1443	71.771942819866	0.038502157290258
0	1445	71.871942819866	0.038502157290258
0	1447	71.971942819866	0.038502157290258
0	1448	72.004113238	0.038502157290258
0	1449	72.071942819866	0.038502157290258
0	1451	72.171942819866	0.038502157290258
0	1453	72.271942819866	0.038502157290258
0	1455	72.371942819866	0.038502157290258
0	1457	72.471942819866	0.038502157290258
0	1458	72.488755786	0.038502157290258
0	1459	72.571942819866	0.038502157290258
0	1461	72.671942819866	0.038502157290258
0	1462	72.763976632	0.038502157290258
0	1463	72.771942819866	0.038502157290258
0	1465	72.871942819866	0.038502157290258
0	1467	72.971942819866	0.038502157290258
0	1469	73.071942819866	0.038502157290258
0	1471	73.171942819866	0.038502157290258
0	1472	73.24150561	0.038502157290258
0	1473	73.271942819866	0.038502157290258
0	1475	73.371942819866	0.038502157290258
0	1477	73.471942819866	0.038502157290258
0	1479	73.571942819866	0.038502157290258
0	1481	73.671942819866	0.038502157290258
0	1482	73.721842282	0.038502157290258
0	1483	73.771942819866	0.038502157290258
0	1485	73.871942819866	0.038502157290258
0	1487	73.971942819866	0.038502157290258
0	1489	74.071942819866	0.038502157290258
0	1490	74.143996771	0.038502157290258
0	1491	74.171942819866	0.038502157290258
0	1493	74.271942819866	0.038502157290258
0	1495	74.371942819866	0.038502157290258
0	1497	74.471942819866	0.038502157290258
0	1499	74.571942819866	0.038502157290258
0	1500	74.59034698	0.038502157290258
0	1501	74.671942819866	0.038502157290258
0	1503	74.771942819866	0.038502157290258
0	1505	74.871942819866	0.038502157290258
0	1505	74.878897891	0.038502157290258
0	1507	74.971942819866	0.038502157290258
0	1509	75.071942819866	0.038502157290258
0	1511	75.171942819866	0.038502157290258
0	1513	75.271942819866	0.038502157290258
0	1515	75.371942819866	0.038502157290258
0	1516	75.389737036	0.038502157290258
0	1517	75.464777127117	0.038502157290258
0	1519	75.564777127117	0.038502157290258
0	1521	75.664777127117	0.038502157290258
0	1523	75.764777127117	0.038502157290258
0	1525	75.864777127117	0.038502157290258
0	1525	75.868745371	0.038502157290258
0	1527	75.964777127117	0.038502157290258
0	1529	76.064777127117	0.038502157290258
0	1531	76.164777127117	0.038502157290258
0	1533	76.264777127117	0.038502157290258
0	1534	76.28786545	0.038502157290258
0	1535	76.364777127117	0.038502157290258
0	1537	76.464777127117	0.038502157290258
0	1539	76.564777127117	0.038502157290258
0	1541	76.664777127117	0.038502157290258
0	1542	76.732366597	0.038502157290258
0	1543	76.764777127117	0.038502157290258
0	1545	76.864777127117	0.038502157290258
0	1547	76.964777127117	0.038502157290258
0	1549	77.064777127117	0.038502157290258
0	1550	77.155436974	0.038502157290258
0	1551	77.164777127117	0.038502157290258
0	1553	77.264777127117	0.038502157290258
0	1555	77.364777127117	0.038502157290258
0	1557	77.464777127117	0.038502157290258
0	1559	77.564777127117	0.038502157290258
0	1560	77.609365921	0.038117135717355
0	1560	77.609365921	0.038117135717355
0	1561	77.664777127117	0.038117135717355
0	1563	77.764777127117	0.038117135717355
0	1565	77.864777127117	0.038117135717355
0	1567	77.964777127117	0.038117135717355
0	1568	78.034868014	0.038117135717355
0	1569	78.064777127117	0.038117135717355
0	1571	78.164777127117	0.038117135717355
0	1573	78.264777127117	0.038117135717355
0	1575	78.364777127117	0.038117135717355
0	1576	78.450443059	0.038117135717355
0	1577	78.464777127117	0.038117135717355
0	1579	78.564777127117	0.038117135717355
0	1581	78.664777127117	0.038117135717355
0	1583	78.764777127117	0.038117135717355
0	1585	78.864777127117	0.038117135717355
0	1586	78.934819711	0.038117135717355
0	1587	78.964777127117	0.038117135717355
0	1589	79.064777127117	0.038117135717355
0	1591	79.164777127117	0.038117135717355
0	1593	79.264777127117	0.038117135717355
0	1595	79.364777127117	0.038117135717355
0	1597	79.464777127117	0.038117135717355
0	1599	79.564777127117	0.038117135717355
0	1600	79.595000035	0.038117135717355
0	1601	79.664777127117	0.038117135717355
0	1603	79.764777127117	0.038117135717355
0	1605	79.864777127117	0.038117135717355
0	1607	79.964777127117	0.038117135717355
0	1609	80.064777127117	0.038117135717355
0	1610	80.101659922	0.038117135717355
0	1611	80.164777127117	0.038117135717355
0	1613	80.264777127117	0.038117135717355
0	1615	80.364777127117	0.038117135717355
0	1616	80.390799202	0.037735964360182
0	1616	80.390799202	0.037735964360182
0	1617	80.464777127117	0.037735964360182
0	1619	80.564777127117	0.037735964360182
0	1621	80.664777127117	0.037735964360182
0	1621	80.667648253	0.037735964360182
0	1623	80.764777127117	0.037735964360182
0	1625	80.864777127117	0.037735964360182
0	1626	80.961704131	0.037735964360182
0	1627	80.964777127117	0.037735964360182
0	1629	81.064777127117	0.037735964360182
0	1631	81.164777127117	0.037735964360182
0	1633	81.264777127117	0.037735964360182
0	1635	81.364777127117	0.037735964360182
0	1637	81.464777127117	0.037735964360182
0	1638	81.506654833	0.037735964360182
0	1639	81.564777127117	0.037735964360182
0	1641	81.664777127117	0.037735964360182
0	1643	81.764777127117	0.037735964360182
0	1645	81.864777127117	0.037735964360182
0	1647	81.964777127117	0.037735964360182
0	1649	82.064777127117	0.037735964360182
0	1649	82.071625999	0.037735964360182
0	1651	82.164777127117	0.037735964360182
0	1653	82.264777127117	0.037735964360182
0	1655	82.364777127117	0.037735964360182
0	1657	82.464777127117	0.037735964360182
0	1658	82.538496922	0.037735964360182
0	1659	82.564777127117	0.037735964360182
0	1661	82.664777127117	0.037735964360182
0	1663	82.764777127117	0.037735964360182
0	1665	82.864777127117	0.037735964360182
0	1667	82.964777127117	0.037735964360182
0	1668	83.039369923	0.037735964360182
0	1669	83.064777127117	0.037735964360182
0	1671	83.164777127117	0.037735964360182
0	1673	83.264777127117	0.037735964360182
0	1675	83.364777127117	0.037735964360182
0	1677	83.464777127117	0.037735964360182
0	1677	83.472072772	0.037735964360182
0	1679	83.564777127117	0.037735964360182
0	1681	83.664777127117	0.037735964360182
0	1683	83.764777127117	0.037735964360182
0	1685	83.864777127117	0.037735964360182
0	1687	83.964777127117	0.037735964360182
0	1688	84.041421277	0.037735964360182
0	1689	84.064777127117	0.037735964360182
0	1691	84.164777127117	0.037735964360182
0	1693	84.264777127117	0.037735964360182
0	1695	84.364777127117	0.037735964360182
0	1697	84.464777127117	0.037735964360182
0	1698	84.500750638	0.037735964360182
0	1699	84.564777127117	0.037735964360182
0	1701	84.664777127117	0.037735964360182
0	1703	84.764777127117	0.037735964360182
0	1705	84.864777127117	0.037735964360182
0	1707	84.964777127117	0.037735964360182
0	1707	84.97417912	0.037735964360182
0	1709	85.064777127117	0.037735964360182
0	1711	85.164777127117	0.037735964360182
0	1713	85.264777127117	0.037735964360182
0	1715	85.364777127117	0.037735964360182
0	1717	85.464777127117	0.037735964360182
0	1718	85.4970361	0.037735964360182
0	1719	85.564777127117	0.037735964360182
0	1721	85.664777127117	0.037735964360182
0	1723	85.764777127117	0.037735964360182
0	1725	85.864777127117	0.037735964360182
0	1727	85.964777127117	0.037735964360182
0	1729	86.064777127117	0.037735964360182
0	1731	86.164777127117	0.037735964360182
0	1732	86.201535265	0.037735964360182
0	1733	86.264777127117	0.037735964360182
0	1735	86.364777127117	0.037735964360182
0	1737	86.464777127117	0.037735964360182
0	1739	86.564777127117	0.037735964360182
0	1741	86.664777127117	0.037735964360182
0	1743	86.764777127117	0.037735964360182
0	1744	86.862988444	0.037735964360182
0	1745	86.864777127117	0.037735964360182
0	1747	86.964777127117	0.037735964360182
0	1749	87.064777127117	0.037735964360182
0	1751	87.164777127117	0.037735964360182
0	1753	87.264777127117	0.037735964360182
0	1755	87.364777127117	0.037735964360182
0	1757	87.464777127117	0.037735964360182
0	1758	87.535914871	0.03735860471658
0	1758	87.535914871	0.03735860471658
0	1759	87.564777127117	0.03735860471658
0	1761	87.664777127117	0.03735860471658
0	1763	87.764777127117	0.03735860471658
0	1765	87.864777127117	0.03735860471658
0	1767	87.964777127117	0.03735860471658
0	1769	88.064777127117	0.03735860471658
0	1770	88.097843095	0.03735860471658
0	1771	88.164777127117	0.03735860471658
0	1773	88.264777127117	0.03735860471658
0	1775	88.364777127117	0.03735860471658
0	1777	88.464777127117	0.03735860471658
0	1779	88.564777127117	0.03735860471658
0	1781	88.664777127117	0.03735860471658
0	1782	88.703367496	0.03735860471658
0	1783	88.764777127117	0.03735860471658
0	1785	88.864777127117	0.03735860471658
0	1787	88.964777127117	0.03735860471658
0	1789	89.064777127117	0.03735860471658
0	1791	89.164777127117	0.03735860471658
0	1791	89.178245164	0.03735860471658
0	1793	89.264777127117	0.03735860471658
0	1795	89.364777127117	0.03735860471658
0	1797	89.464777127117	0.03735860471658
0	1799	89.564777127117	0.03735860471658
0	1801	89.664777127117	0.03735860471658
0	1803	89.764777127117	0.03735860471658
0	1805	89.864777127117	0.03735860471658
0	1805	89.868785515	0.03735860471658
0	1807	89.964777127117	0.03735860471658
0	1809	90.064777127117	0.03735860471658
0	1811	90.164777127117	0.03735860471658
0	1813	90.264777127117	0.03735860471658
0	1815	90.364777127117	0.03735860471658
0	1817	90.464777127117	0.03735860471658
0	1819	90.564777127117	0.03735860471658
0	1820	90.633648778	0.03735860471658
0	1821	90.664777127117	0.03735860471658
0	1823	90.764777127117	0.03735860471658
0	1825	90.864777127117	0.03735860471658
0	1827	90.964777127117	0.03735860471658
0	1829	91.064777127117	0.03735860471658
0	1831	91.164777127117	0.03735860471658
0	1833	91.264777127117	0.03735860471658
0	1834	91.2982924	0.03735860471658
0	1835	91.364777127117	0.03735860471658
0	1837	91.464777127117	0.03735860471658
0	1839	91.564777127117	0.03735860471658
0	1841	91.664777127117	0.03735860471658
0	1843	91.764777127117	0.03735860471658
0	1844	91.839919624	0.03735860471658
0	1845	91.864777127117	0.03735860471658
0	1847	91.964777127117	0.03735860471658
0	1849	92.064777127117	0.03735860471658
0	1851	92.164777127117	0.03735860471658
0	1853	92.264777127117	0.03735860471658
0	1855	92.364777127117	0.03735860471658
0	1856	92.391150823	0.03735860471658
0	1857	92.464777127117	0.03735860471658
0	1859	92.564777127117	0.03735860471658
0	1861	92.664777127117	0.03735860471658
0	1861	92.679811039	0.03735860471658
0	1863	92.764777127117	0.03735860471658
0	1865	92.864777127117	0.03735860471658
0	1867	92.964777127117	0.03735860471658
0	1867	92.970453445	0.03735860471658
0	1869	93.064777127117	0.03735860471658
0	1871	93.164777127117	0.03735860471658
0	1873	93.264777127117	0.03735860471658
0	1875	93.364777127117	0.03735860471658
0	1876	93.398676628	0.03735860471658
0	1877	93.464777127117	0.03735860471658
0	1879	93.564777127117	0.03735860471658
0	1880	93.647766694	0.03735860471658
0	1881	93.664777127117	0.03735860471658
0	1883	93.764777127117	0.03735860471658
0	1885	93.864777127117	0.03735860471658
0	1887	93.964777127117	0.03735860471658
0	1889	94.064777127117	0.03735860471658
0	1890	94.146251131	0.03735860471658
0	1891	94.164777127117	0.03735860471658
0	1893	94.264777127117	0.03735860471658
0	1895	94.364777127117	0.03735860471658
0	1897	94.464777127117	0.03735860471658
0	1899	94.564777127117	0.03735860471658
0	1900	94.661975431	0.036985018669414
0	1900	94.661975431	0.036985018669414
0	1901	94.664777127117	0.036985018669414
0	1903	94.764777127117	0.036985018669414
0	1905	94.864777127117	0.036985018669414
0	1907	94.964777127117	0.036985018669414
0	1908	95.060885932	0.036985018669414
0	1909	95.064777127117	0.036985018669414
0	1911	95.164777127117	0.036985018669414
0	1913	95.264777127117	0.036985018669414
0	1914	95.350517818	0.036985018669414
0	1915	95.364777127117	0.036985018669414
0	1917	95.464777127117	0.036985018669414
0	1919	95.564777127117	0.036985018669414
0	1920	95.615886724	0.036985018669414
0	1921	95.664777127117	0.036985018669414
0	1923	95.764777127117	0.036985018669414
0	1926	95.864777127117	0.036985018669414
0	1927	95.88687637	0.036985018669414
0	1928	95.964777127117	0.036985018669414
0	1930	96.064777127117	0.036985018669414
0	1932	96.164777127117	0.036985018669414
0	1934	96.264777127117	0.036985018669414
0	1936	96.364777127117	0.036985018669414
0	1937	96.408851215	0.036985018669414
0	1938	96.464777127117	0.036985018669414
0	1940	96.564777127117	0.036985018669414
0	1942	96.664777127117	0.036985018669414
0	1944	96.764777127117	0.036985018669414
0	1945	96.785349838	0.036985018669414
0	1946	96.864777127117	0.036985018669414
0	1948	96.964777127117	0.036985018669414
0	1950	97.064777127117	0.036985018669414
0	1952	97.164777127117	0.036985018669414
0	1953	97.253315662	0.036985018669414
0	1954	97.264777127117	0.03661516848272
0	1954	97.264777127117	0.03661516848272
0	1956	97.364777127117	0.03661516848272
0	1958	97.464777127117	0.03661516848272
0	1960	97.564777127117	0.03661516848272
0	1962	97.664777127117	0.03661516848272
0	1962	97.670336701	0.03661516848272
0	1964	97.764777127117	0.03661516848272
0	1966	97.864777127117	0.03661516848272
0	1968	97.964777127117	0.03661516848272
0	1970	98.064777127117	0.03661516848272
0	1972	98.164777127117	0.03661516848272
0	1972	98.175511036	0.03661516848272
0	1974	98.264777127117	0.03661516848272
0	1976	98.364777127117	0.03661516848272
0	1978	98.464777127117	0.03661516848272
0	1980	98.564777127117	0.03661516848272
0	1981	98.653735693	0.03661516848272
0	1982	98.664777127117	0.036249016797893
0	1982	98.664777127117	0.036249016797893
0	1984	98.764777127117	0.036249016797893
0	1986	98.864777127117	0.036249016797893
0	1988	98.964777127117	0.036249016797893
0	1989	99.055171954	0.036249016797893
0	1990	99.064777127117	0.036249016797893
0	1992	99.164777127117	0.036249016797893
0	1994	99.264777127117	0.036249016797893
0	1995	99.329962003	0.036249016797893
0	1996	99.364777127117	0.036249016797893
0	1998	99.452072761948	0.036249016797893
0	1999	99.464777127117	0.036299834258569
0	2001	99.514818562475	0.0365
0	2002	99.564777127117	0.036699834258568
0	2003	99.595265182	0.0368217864781
0	2004	99.639818562475	0.037
0	2005	99.664777127117	0.037099834258568
0	2007	99.764777127117	0.037499834258568
0	2008	99.764818562475	0.0375
0	2010	99.864777127117	0.037520835915982
0	2010	99.864777127117	0.037520835915982
0	2012	99.889818562475	0.038
0	2013	99.964777127117	0.038299834258568
0	2015	100.014818562475	0.0385
0	2016	100.064777127117	0.038699834258568
0	2016	100.068047452	0.0387129155581
0	2018	100.139818562475	0.039
0	2019	100.164777127117	0.039099834258568
0	2021	100.264777127117	0.039499834258568
0	2022	100.264818562475	0.0395
0	2024	100.364777127117	0.039899834258568
0	2026	100.389818562475	0.04
0	2027	100.464777127117	0.040299834258568
0	2029	100.514818562475	0.0405
0	2030	100.564777127117	0.040699834258568
0	2031	100.589375026	0.0407982258541
0	2032	100.639818562475	0.041
0	2033	100.664777127117	0.041099834258568
0	2035	100.764777127117	0.041499834258568
0	2036	100.764818562475	0.0415
0	2038	100.864777127117	0.041899834258568
0	2040	100.889818562475	0.04158
0	2040	100.889818562475	0.04158
0	2041	100.9317777061	0.0417478365745
0	2042	100.964777127117	0.0417478365745
0	2043	101.039733055	0.0417478365745
0	2044	101.064777127117	0.0417478365745
0	2046	101.164777127117	0.0417478365745
0	2048	101.264777127117	0.0417478365745
0	2050	101.364777127117	0.0417478365745
0	2052	101.464777127117	0.0417478365745
0	2053	101.509956472	0.0417478365745
0	2054	101.564777127117	0.0417478365745
0	2056	101.664777127117	0.0417478365745
0	2058	101.764777127117	0.0417478365745
0	2060	101.864777127117	0.0417478365745
0	2062	101.964777127117	0.0417478365745
0	2063	101.996773084	0.0417478365745
0	2064	102.064777127117	0.0417478365745
0	2066	102.164777127117	0.0417478365745
0	2068	102.264777127117	0.041330358208755
0	2068	102.264777127117	0.041330358208755
0	2070	102.364777127117	0.041330358208755
0	2072	102.464777127117	0.041330358208755
0	2073	102.501570916	0.041330358208755
0	2074	102.564777127117	0.041330358208755
0	2076	102.664777127117	0.041330358208755
0	2078	102.764777127117	0.041330358208755
0	2080	102.864777127117	0.041330358208755
0	2082	102.964777127117	0.041330358208755
0	2083	103.05156817	0.041330358208755
0	2084	103.064777127117	0.041330358208755
0	2086	103.164777127117	0.041330358208755
0	2088	103.264777127117	0.041330358208755
0	2090	103.364777127117	0.041330358208755
0	2092	103.464777127117	0.041330358208755
0	2093	103.489723726	0.041330358208755
0	2094	103.564777127117	0.041330358208755
0	2096	103.664777127117	0.040917054626667
0	2096	103.664777127117	0.040917054626667
0	2098	103.764777127117	0.040917054626667
0	2100	103.864777127117	0.040917054626667
0	2101	103.959339733	0.040917054626667
0	2102	103.964777127117	0.040917054626667
0	2104	104.064777127117	0.040917054626667
0	2106	104.164777127117	0.040917054626667
0	2108	104.264777127117	0.040917054626667
0	2110	104.364777127117	0.040917054626667
0	2112	104.464777127117	0.040917054626667
0	2113	104.485792102	0.040917054626667
0	2114	104.564777127117	0.040917054626667
0	2116	104.664777127117	0.040917054626667
0	2118	104.764777127117	0.040917054626667
0	2118	104.781153838	0.040917054626667
0	2120	104.864777127117	0.040917054626667
0	2122	104.964777127117	0.040917054626667
0	2124	105.064777127117	0.040507884080401
0	2124	105.064777127117	0.040507884080401
0	2126	105.164777127117	0.040507884080401
0	2128	105.264777127117	0.040507884080401
0	2128	105.275020396	0.040507884080401
0	2130	105.364777127117	0.040507884080401
0	2132	105.464777127117	0.040507884080401
0	2134	105.564777127117	0.040507884080401
0	2134	105.573109252	0.040507884080401
0	2136	105.664777127117	0.040507884080401
0	2138	105.764777127117	0.040507884080401
0	2140	105.864777127117	0.040507884080401
0	2142	105.964777127117	0.040507884080401
0	2142	105.983664136	0.040507884080401
0	2144	106.064777127117	0.040507884080401
0	2146	106.164777127117	0.040507884080401
0	2148	106.264777127117	0.040507884080401
0	2150	106.364777127117	0.040507884080401
0	2151	106.444147528	0.040507884080401
0	2152	106.464777127117	0.040507884080401
0	2154	106.564777127117	0.040507884080401
0	2156	106.664777127117	0.040507884080401
0	2158	106.764777127117	0.040507884080401
0	2160	106.864777127117	0.040507884080401
0	2162	106.964777127117	0.040507884080401
0	2163	107.017886929	0.040507884080401
0	2164	107.064777127117	0.040507884080401
0	2166	107.164777127117	0.040507884080401
0	2168	107.264777127117	0.040507884080401
0	2170	107.364777127117	0.040507884080401
0	2172	107.464777127117	0.040507884080401
0	2174	107.564777127117	0.040507884080401
0	2174	107.579142118	0.040507884080401
0	2176	107.664777127117	0.040507884080401
0	2178	107.764777127117	0.040507884080401
0	2180	107.864777127117	0.040102805239597
0	2180	107.864777127117	0.040102805239597
0	2182	107.964777127117	0.040102805239597
0	2184	108.064777127117	0.040102805239597
0	2184	108.06829063	0.040102805239597
0	2186	108.164777127117	0.040102805239597
0	2188	108.264777127117	0.040102805239597
0	2190	108.364777127117	0.040102805239597
0	2192	108.464777127117	0.040102805239597
0	2194	108.564777127117	0.040102805239597
0	2195	108.590593075	0.040102805239597
0	2196	108.664777127117	0.040102805239597
0	2198	108.764777127117	0.040102805239597
0	2200	108.864777127117	0.040102805239597
0	2202	108.964777127117	0.040102805239597
0	2203	108.99773218	0.040102805239597
0	2204	109.064777127117	0.040102805239597
0	2206	109.164777127117	0.040102805239597
0	2208	109.264777127117	0.039701777187201
0	2208	109.264777127117	0.039701777187201
0	2209	109.290788368	0.039701777187201
0	2210	109.364777127117	0.039701777187201
0	2212	109.464777127117	0.039701777187201
0	2214	109.564777127117	0.039701777187201
0	2216	109.664777127117	0.039701777187201
0	2218	109.764777127117	0.039701777187201
0	2218	109.767300979	0.039701777187201
0	2220	109.864777127117	0.039701777187201
0	2222	109.964777127117	0.039701777187201
0	2224	110.064777127117	0.039701777187201
0	2225	110.150389324	0.039701777187201
0	2226	110.164777127117	0.039701777187201
0	2228	110.264777127117	0.039701777187201
0	2230	110.364777127117	0.039701777187201
0	2232	110.464777127117	0.039701777187201
0	2234	110.564777127117	0.039701777187201
0	2235	110.653598074	0.039701777187201
0	2236	110.664777127117	0.039701777187201
0	2238	110.764777127117	0.039701777187201
0	2240	110.864777127117	0.039701777187201
0	2242	110.964777127117	0.039701777187201
0	2244	111.064777127117	0.039701777187201
0	2246	111.164777127117	0.039701777187201
0	2248	111.264777127117	0.039701777187201
0	2249	111.335078023	0.039701777187201
0	2250	111.364777127117	0.039701777187201
0	2252	111.464777127117	0.039701777187201
0	2254	111.564777127117	0.039701777187201
0	2255	111.589771489	0.039701777187201
0	2256	111.664777127117	0.039701777187201
0	2258	111.764777127117	0.039701777187201
0	2260	111.864777127117	0.039701777187201
0	2262	111.964777127117	0.039701777187201
0	2263	112.007403601	0.039701777187201
0	2264	112.064777127117	0.039701777187201
0	2266	112.164777127117	0.039701777187201
0	2268	112.264777127117	0.039701777187201
0	2270	112.364777127117	0.039701777187201
0	2272	112.464777127117	0.039701777187201
0	2272	112.465728847	0.039701777187201
0	2274	112.564777127117	0.039701777187201
0	2276	112.664777127117	0.039701777187201
0	2278	112.764777127117	0.039701777187201
0	2280	112.864777127117	0.039701777187201
0	2281	112.921792468	0.039701777187201
0	2282	112.964777127117	0.039701777187201
0	2284	113.064777127117	0.039701777187201
0	2286	113.164777127117	0.039701777187201
0	2288	113.264777127117	0.039701777187201
0	2289	113.352720001	0.039701777187201
0	2290	113.364777127117	0.039304759415329
0	2290	113.364777127117	0.039304759415329
0	2292	113.464777127117	0.039304759415329
0	2294	113.564777127117	0.039304759415329
0	2296	113.664777127117	0.039304759415329
0	2298	113.764777127117	0.039304759415329
0	2299	113.819317351	0.039304759415329
0	2300	113.864777127117	0.039304759415329
0	2302	113.928077656971	0.039304759415329
0	2304	114.028077656971	0.039304759415329
0	2306	114.128077656971	0.039304759415329
0	2308	114.228077656971	0.039304759415329
0	2310	114.328077656971	0.039304759415329
0	2310	114.335817625	0.039304759415329
0	2312	114.428077656971	0.039304759415329
0	2314	114.528077656971	0.039304759415329
0	2316	114.628077656971	0.039304759415329
0	2318	114.728077656971	0.039304759415329
0	2318	114.779758621	0.038911711821176
0	2318	114.779758621	0.038911711821176
0	2320	114.828077656971	0.038911711821176
0	2322	114.928077656971	0.038911711821176
0	2324	115.028077656971	0.038911711821176
0	2324	115.04238706	0.038911711821176
0	2326	115.128077656971	0.038911711821176
0	2328	115.228077656971	0.038911711821176
0	2330	115.328077656971	0.038911711821176
0	2332	115.428077656971	0.038911711821176
0	2334	115.528077656971	0.038911711821176
0	2334	115.535851486	0.038911711821176
0	2336	115.628077656971	0.038911711821176
0	2338	115.728077656971	0.038911711821176
0	2339	115.827432529	0.038911711821176
0	2340	115.828077656971	0.038911711821176
0	2342	115.928077656971	0.038911711821176
0	2344	116.028077656971	0.038911711821176
0	2346	116.128077656971	0.038522594702964
0	2346	116.128077656971	0.038522594702964
0	2348	116.228077656971	0.038522594702964
0	2350	116.328077656971	0.038522594702964
0	2350	116.37154483	0.038522594702964
0	2352	116.428077656971	0.038522594702964
0	2354	116.528077656971	0.038522594702964
0	2356	116.628077656971	0.038522594702964
0	2358	116.728077656971	0.038522594702964
0	2358	116.772215965	0.038522594702964
0	2360	116.828077656971	0.038522594702964
0	2362	116.928077656971	0.038522594702964
0	2364	117.028077656971	0.038522594702964
0	2366	117.128077656971	0.038522594702964
0	2368	117.228077656971	0.038522594702964
0	2368	117.253350571	0.038522594702964
0	2370	117.328077656971	0.038522594702964
0	2372	117.428077656971	0.038522594702964
0	2374	117.528077656971	0.038137368755934
0	2374	117.528077656971	0.038137368755934
0	2376	117.628077656971	0.038137368755934
0	2378	117.728077656971	0.038137368755934
0	2380	117.828077656971	0.038137368755934
0	2381	117.911720917	0.038137368755934
0	2382	117.928077656971	0.038137368755934
0	2384	118.028077656971	0.038137368755934
0	2386	118.128077656971	0.038137368755934
0	2388	118.228077656971	0.038137368755934
0	2390	118.328077656971	0.038137368755934
0	2392	118.428077656971	0.038137368755934
0	2392	118.442923405	0.038137368755934
0	2394	118.528077656971	0.038137368755934
0	2396	118.628077656971	0.038137368755934
0	2398	118.728077656971	0.038137368755934
0	2400	118.828077656971	0.038137368755934
0	2400	118.856274202	0.038137368755934
0	2402	118.928077656971	0.037755995068375
0	2402	118.928077656971	0.037755995068375
0	2404	119.028077656971	0.037755995068375
0	2406	119.128077656971	0.037755995068375
0	2408	119.228077656971	0.037755995068375
0	2410	119.328077656971	0.037755995068375
0	2410	119.355262606	0.037755995068375
0	2412	119.428077656971	0.037755995068375
0	2414	119.528077656971	0.037755995068375
0	2416	119.628077656971	0.037755995068375
0	2418	119.728077656971	0.037755995068375
0	2419	119.795219362	0.037755995068375
0	2420	119.828077656971	0.037755995068375
0	2422	119.928077656971	0.037755995068375
0	2424	120.028077656971	0.037755995068375
0	2427	120.128077656971	0.037755995068375
0	2430	120.228077656971	0.037755995068375
0	2433	120.328077656971	0.037755995068375
0	2433	120.346914796	0.037755995068375
0	2436	120.428077656971	0.037755995068375
0	2438	120.528077656971	0.037755995068375
0	2441	120.628077656971	0.037755995068375
0	2444	120.728077656971	0.037755995068375
0	2446	120.828077656971	0.037755995068375
0	2446	120.834896605	0.037755995068375
0	2448	120.928077656971	0.037755995068375
0	2450	121.028077656971	0.037755995068375
0	2452	121.128077656971	0.037755995068375
0	2454	121.228077656971	0.037755995068375
0	2456	121.328077656971	0.037755995068375
0	2457	121.422107593	0.037755995068375
0	2458	121.428077656971	0.037755995068375
0	2460	121.528077656971	0.037378435117691
0	2460	121.528077656971	0.037378435117691
0	2462	121.628077656971	0.037378435117691
0	2464	121.728077656971	0.037378435117691
0	2466	121.828077656971	0.037378435117691
0	2468	121.928077656971	0.037378435117691
0	2469	122.026371238	0.037378435117691
0	2470	122.028077656971	0.037378435117691
0	2472	122.128077656971	0.037378435117691
0	2474	122.228077656971	0.037378435117691
0	2476	122.328077656971	0.037378435117691
0	2478	122.428077656971	0.037378435117691
0	2480	122.528077656971	0.037378435117691
0	2481	122.606007112	0.037378435117691
0	2482	122.628077656971	0.037378435117691
0	2484	122.728077656971	0.037378435117691
0	2486	122.828077656971	0.037378435117691
0	2486	122.868614899	0.037378435117691
0	2488	122.928077656971	0.037004650766514
0	2488	122.928077656971	0.037004650766514
0	2490	123.028077656971	0.037004650766514
0	2492	123.128077656971	0.037004650766514
0	2494	123.228077656971	0.037004650766514
0	2496	123.328077656971	0.037004650766514
0	2496	123.348720709	0.037004650766514
0	2498	123.428077656971	0.037004650766514
0	2500	123.528077656971	0.037004650766514
0	2500	123.583933501	0.037004650766514
0	2502	123.628077656971	0.037004650766514
0	2504	123.728077656971	0.037004650766514
0	2506	123.828077656971	0.037004650766514
0	2508	123.928077656971	0.037004650766514
0	2509	124.00466776	0.037004650766514
0	2510	124.028077656971	0.037004650766514
0	2512	124.128077656971	0.037004650766514
0	2514	124.228077656971	0.037004650766514
0	2514	124.259002492	0.036634604258849
0	2514	124.259002492	0.036634604258849
0	2516	124.328077656971	0.036634604258849
0	2518	124.428077656971	0.036634604258849
0	2520	124.528077656971	0.036634604258849
0	2522	124.628077656971	0.036634604258849
0	2524	124.728077656971	0.036634604258849
0	2525	124.812071605	0.036634604258849
0	2526	124.828077656971	0.036634604258849
0	2528	124.928077656971	0.036634604258849
0	2530	125.028077656971	0.036634604258849
0	2531	125.096810521	0.036634604258849
0	2532	125.128077656971	0.036634604258849
0	2534	125.228077656971	0.036634604258849
0	2536	125.328077656971	0.036634604258849
0	2538	125.428077656971	0.036634604258849
0	2540	125.528077656971	0.036634604258849
0	2540	125.558232136	0.036634604258849
0	2542	125.628077656971	0.03626825821626
0	2542	125.628077656971	0.03626825821626
0	2544	125.728077656971	0.03626825821626
0	2546	125.828077656971	0.03626825821626
0	2548	125.928077656971	0.03626825821626
0	2550	126.028077656971	0.03626825821626
0	2550	126.074130511	0.03626825821626
0	2552	126.128077656971	0.03626825821626
0	2554	126.228077656971	0.03626825821626
0	2556	126.328077656971	0.03626825821626
0	2558	126.428077656971	0.03626825821626
0	2559	126.51708721	0.03626825821626
0	2560	126.528077656971	0.03626825821626
0	2562	126.628077656971	0.03626825821626
0	2564	126.728077656971	0.03626825821626
0	2566	126.828077656971	0.03626825821626
0	2568	126.928077656971	0.03626825821626
0	2570	127.028077656971	0.03626825821626
0	2570	127.07857399	0.035905575634098
0	2570	127.07857399	0.035905575634098
0	2572	127.128077656971	0.035905575634098
0	2574	127.228077656971	0.035905575634098
0	2576	127.328077656971	0.035905575634098
0	2578	127.428077656971	0.035905575634098
0	2580	127.528077656971	0.035905575634098
0	2580	127.533017326	0.035905575634098
0	2582	127.628077656971	0.035905575634098
0	2584	127.728077656971	0.035905575634098
0	2586	127.828077656971	0.035905575634098
0	2588	127.928077656971	0.035905575634098
0	2589	128.004772873	0.035905575634098
0	2590	128.028077656971	0.035905575634098
0	2592	128.128077656971	0.035905575634098
0	2594	128.228077656971	0.035905575634098
0	2596	128.328077656971	0.035905575634098
0	2597	128.425139737	0.035905575634098
0	2598	128.428077656971	0.035546519877757
0	2598	128.428077656971	0.035546519877757
0	2600	128.528077656971	0.035546519877757
0	2602	128.628077656971	0.035546519877757
0	2603	128.686868356	0.035546519877757
0	2604	128.728077656971	0.035546519877757
0	2606	128.828077656971	0.035546519877757
0	2608	128.928077656971	0.035546519877757
0	2610	129.028077656971	0.035546519877757
0	2612	129.128077656971	0.035546519877757
0	2613	129.209917987	0.035546519877757
0	2614	129.228077656971	0.035546519877757
0	2616	129.328077656971	0.035546519877757
0	2618	129.428077656971	0.035546519877757
0	2620	129.528077656971	0.035546519877757
0	2622	129.628077656971	0.035546519877757
0	2623	129.698856427	0.035546519877757
0	2624	129.728077656971	0.035546519877757
0	2626	129.828077656971	0.035191054678979
0	2626	129.828077656971	0.035191054678979
0	2628	129.928077656971	0.035191054678979
0	2630	130.028077656971	0.035191054678979
0	2632	130.128077656971	0.035191054678979
0	2634	130.228077656971	0.035191054678979
0	2636	130.328077656971	0.035191054678979
0	2636	130.343231668	0.035191054678979
0	2638	130.428077656971	0.035191054678979
0	2640	130.528077656971	0.035191054678979
0	2642	130.628077656971	0.035191054678979
0	2644	130.728077656971	0.035191054678979
0	2646	130.828077656971	0.035191054678979
0	2647	130.895314648	0.035191054678979
0	2648	130.928077656971	0.035191054678979
0	2650	131.028077656971	0.035191054678979
0	2652	131.128077656971	0.035191054678979
0	2654	131.228077656971	0.035191054678979
0	2656	131.328077656971	0.03483914413219
0	2656	131.328077656971	0.03483914413219
0	2656	131.360754817	0.03483914413219
0	2658	131.428077656971	0.03483914413219
0	2660	131.528077656971	0.03483914413219
0	2662	131.628077656971	0.03483914413219
0	2664	131.728077656971	0.03483914413219
0	2664	131.782856914	0.03483914413219
0	2666	131.828077656971	0.03483914413219
0	2668	131.928077656971	0.03483914413219
0	2670	132.028077656971	0.03483914413219
0	2672	132.128077656971	0.03483914413219
0	2673	132.204568054	0.03483914413219
0	2674	132.228077656971	0.03483914413219
0	2676	132.328077656971	0.03483914413219
0	2678	132.428077656971	0.03483914413219
0	2680	132.528077656971	0.03483914413219
0	2682	132.628077656971	0.03483914413219
0	2683	132.722426401	0.03483914413219
0	2684	132.728077656971	0.03483914413219
0	2686	132.828077656971	0.03483914413219
0	2688	132.928077656971	0.03483914413219
0	2690	133.028077656971	0.03483914413219
0	2691	133.114605967	0.03483914413219
0	2692	133.128077656971	0.03483914413219
0	2694	133.228077656971	0.03483914413219
0	2696	133.328077656971	0.03483914413219
0	2698	133.428077656971	0.03483914413219
0	2700	133.528077656971	0.03483914413219
0	2701	133.603784782	0.03483914413219
0	2702	133.628077656971	0.03483914413219
0	2704	133.728077656971	0.03483914413219
0	2706	133.828077656971	0.03483914413219
0	2708	133.928077656971	0.03483914413219
0	2709	134.008263748	0.03483914413219
0	2710	134.028077656971	0.034490752690868
0	2710	134.028077656971	0.034490752690868
0	2712	134.128077656971	0.034490752690868
0	2714	134.228077656971	0.034490752690868
0	2716	134.328077656971	0.034490752690868
0	2718	134.428077656971	0.034490752690868
0	2719	134.515653958	0.034490752690868
0	2720	134.528077656971	0.034490752690868
0	2722	134.628077656971	0.034490752690868
0	2724	134.728077656971	0.034490752690868
0	2726	134.828077656971	0.034490752690868
0	2728	134.928077656971	0.034490752690868
0	2729	135.023164432	0.034490752690868
0	2730	135.028077656971	0.034490752690868
0	2732	135.128077656971	0.034490752690868
0	2734	135.228077656971	0.034490752690868
0	2736	135.328077656971	0.034490752690868
0	2738	135.428077656971	0.034490752690868
0	2740	135.528077656971	0.034145845163959
0	2740	135.528077656971	0.034145845163959
0	2740	135.551933137	0.034145845163959
0	2742	135.628077656971	0.034145845163959
0	2744	135.728077656971	0.034145845163959
0	2746	135.828077656971	0.034145845163959
0	2748	135.928077656971	0.034145845163959
0	2749	136.018377064	0.034145845163959
0	2750	136.028077656971	0.034145845163959
0	2752	136.128077656971	0.034145845163959
0	2754	136.228077656971	0.034145845163959
0	2756	136.328077656971	0.034145845163959
0	2758	136.428077656971	0.034145845163959
0	2759	136.50656071	0.034145845163959
0	2760	136.528077656971	0.034145845163959
0	2762	136.628077656971	0.034145845163959
0	2764	136.728077656971	0.034145845163959
0	2766	136.828077656971	0.034145845163959
0	2768	136.928077656971	0.033804386712319
0	2768	136.928077656971	0.033804386712319
0	2768	136.948522324	0.033804386712319
0	2770	137.028077656971	0.033804386712319
0	2772	137.128077656971	0.033804386712319
0	2773	137.211662686	0.033804386712319
0	2774	137.228077656971	0.033804386712319
0	2776	137.328077656971	0.033804386712319
0	2778	137.428077656971	0.033804386712319
0	2779	137.494012066	0.033804386712319
0	2780	137.528077656971	0.033804386712319
0	2782	137.628077656971	0.033804386712319
0	2784	137.728077656971	0.033804386712319
0	2786	137.828077656971	0.033804386712319
0	2788	137.928077656971	0.033804386712319
0	2789	137.998809616	0.033804386712319
0	2790	138.028077656971	0.033804386712319
0	2792	138.128077656971	0.033804386712319
0	2794	138.228077656971	0.033466342845196
0	2794	138.228077656971	0.033466342845196
0	2796	138.328077656971	0.033466342845196
0	2798	138.428077656971	0.033466342845196
0	2798	138.457896283	0.033466342845196
0	2800	138.528077656971	0.033466342845196
0	2802	138.628077656971	0.033466342845196
0	2804	138.728077656971	0.033466342845196
0	2806	138.828077656971	0.033466342845196
0	2807	138.915090751	0.033466342845196
0	2808	138.928077656971	0.033466342845196
0	2810	139.028077656971	0.033466342845196
0	2812	139.128077656971	0.033466342845196
0	2814	139.228077656971	0.033466342845196
0	2816	139.328077656971	0.033466342845196
0	2816	139.365306796	0.033466342845196
0	2818	139.428077656971	0.033466342845196
0	2820	139.528077656971	0.033466342845196
0	2822	139.628077656971	0.033131679416744
0	2822	139.628077656971	0.033131679416744
0	2824	139.728077656971	0.033131679416744
0	2825	139.825630465	0.033131679416744
0	2826	139.828077656971	0.033131679416744
0	2828	139.928077656971	0.033131679416744
0	2830	140.028077656971	0.033131679416744
0	2830	140.059497961	0.033131679416744
0	2832	140.128077656971	0.033131679416744
0	2834	140.228077656971	0.033131679416744
0	2836	140.328077656971	0.033131679416744
0	2838	140.428077656971	0.033131679416744
0	2840	140.528077656971	0.033131679416744
0	2840	140.532712303	0.033131679416744
0	2842	140.628077656971	0.033131679416744
0	2844	140.728077656971	0.033131679416744
0	2846	140.828077656971	0.033131679416744
0	2848	140.928077656971	0.033131679416744
0	2848	140.958000643	0.032800362622577
0	2848	140.958000643	0.032800362622577
0	2850	141.028077656971	0.032800362622577
0	2852	141.128077656971	0.032800362622577
0	2854	141.228077656971	0.032800362622577
0	2856	141.328077656971	0.032800362622577
0	2858	141.428077656971	0.032800362622577
0	2858	141.454895848	0.032800362622577
0	2860	141.528077656971	0.032800362622577
0	2862	141.628077656971	0.032800362622577
0	2864	141.728077656971	0.032800362622577
0	2866	141.828077656971	0.032800362622577
0	2868	141.928077656971	0.032800362622577
0	2869	142.014817726	0.032800362622577
0	2870	142.028077656971	0.032800362622577
0	2872	142.128077656971	0.032800362622577
0	2874	142.228077656971	0.032800362622577
0	2876	142.328077656971	0.032800362622577
0	2878	142.428077656971	0.032472358996351
0	2878	142.428077656971	0.032472358996351
0	2879	142.50294646	0.032472358996351
0	2880	142.528077656971	0.032472358996351
0	2882	142.628077656971	0.032472358996351
0	2884	142.728077656971	0.032472358996351
0	2886	142.828077656971	0.032472358996351
0	2888	142.928077656971	0.032472358996351
0	2888	142.949409547	0.032472358996351
0	2890	143.028077656971	0.032472358996351
0	2892	143.128077656971	0.032472358996351
0	2893	143.209439875	0.032472358996351
0	2894	143.228077656971	0.032472358996351
0	2896	143.328077656971	0.032472358996351
0	2898	143.428077656971	0.032472358996351
0	2900	143.528077656971	0.032472358996351
0	2902	143.628077656971	0.032472358996351
0	2903	143.713252333	0.032472358996351
0	2904	143.728077656971	0.032147635406388
0	2904	143.728077656971	0.032147635406388
0	2906	143.828077656971	0.032147635406388
0	2908	143.928077656971	0.032147635406388
0	2910	144.028077656971	0.032147635406388
0	2912	144.128077656971	0.032147635406388
0	2913	144.192019003	0.032147635406388
0	2914	144.228077656971	0.032147635406388
0	2916	144.328077656971	0.032147635406388
0	2918	144.428077656971	0.032147635406388
0	2920	144.528077656971	0.032147635406388
0	2922	144.628077656971	0.032147635406388
0	2924	144.728077656971	0.032147635406388
0	2924	144.767280445	0.032147635406388
0	2926	144.828077656971	0.032147635406388
0	2928	144.928077656971	0.032147635406388
0	2930	145.028077656971	0.032147635406388
0	2932	145.128077656971	0.032147635406388
0	2934	145.228077656971	0.031826159052324
0	2934	145.228077656971	0.031826159052324
0	2934	145.262234383	0.031826159052324
0	2936	145.328077656971	0.031826159052324
0	2938	145.428077656971	0.031826159052324
0	2940	145.528077656971	0.031826159052324
0	2942	145.628077656971	0.031826159052324
0	2943	145.72651825	0.031826159052324
0	2944	145.728077656971	0.031826159052324
0	2946	145.828077656971	0.031826159052324
0	2948	145.928077656971	0.031826159052324
0	2950	146.028077656971	0.031826159052324
0	2952	146.128077656971	0.031826159052324
0	2953	146.215716226	0.031826159052324
0	2954	146.228077656971	0.031826159052324
0	2956	146.328077656971	0.031826159052324
0	2958	146.428077656971	0.031826159052324
0	2960	146.528077656971	0.031826159052324
0	2962	146.628077656971	0.0315078974618
0	2962	146.628077656971	0.0315078974618
0	2962	146.650375105	0.0315078974618
0	2964	146.728077656971	0.0315078974618
0	2966	146.828077656971	0.0315078974618
0	2968	146.928077656971	0.0315078974618
0	2970	147.028077656971	0.0315078974618
0	2971	147.097452793	0.0315078974618
0	2972	147.128077656971	0.0315078974618
0	2974	147.228077656971	0.0315078974618
0	2976	147.328077656971	0.0315078974618
0	2978	147.428077656971	0.0315078974618
0	2980	147.528077656971	0.0315078974618
0	2981	147.616820782	0.0315078974618
0	2982	147.628077656971	0.0315078974618
0	2984	147.728077656971	0.0315078974618
0	2986	147.828077656971	0.0315078974618
0	2988	147.928077656971	0.0315078974618
0	2990	148.028077656971	0.031192818487182
0	2990	148.028077656971	0.031192818487182
0	2990	148.051056703	0.031192818487182
0	2992	148.128077656971	0.031192818487182
0	2994	148.228077656971	0.031192818487182
0	2996	148.328077656971	0.031192818487182
0	2998	148.428077656971	0.031192818487182
0	3000	148.528077656971	0.031192818487182
0	3001	148.615940767	0.031192818487182
0	3002	148.628077656971	0.031192818487182
0	3004	148.728077656971	0.031192818487182
0	3006	148.828077656971	0.031192818487182
0	3008	148.928077656971	0.031192818487182
0	3010	149.028077656971	0.031192818487182
0	3012	149.128077656971	0.031192818487182
0	3014	149.228077656971	0.031192818487182
0	3015	149.300767711	0.031192818487182
0	3016	149.328077656971	0.031192818487182
0	3018	149.428077656971	0.030880890302311
0	3018	149.428077656971	0.030880890302311
0	3020	149.528077656971	0.030880890302311
0	3022	149.628077656971	0.030880890302311
0	3024	149.728077656971	0.030880890302311
0	3026	149.828077656971	0.030880890302311
0	3027	149.893476574	0.030880890302311
0	3028	149.928077656971	0.030880890302311
0	3030	150.028077656971	0.030880890302311
0	3032	150.128077656971	0.030880890302311
0	3034	150.228077656971	0.030880890302311
0	3036	150.328077656971	0.030880890302311
0	3038	150.428077656971	0.030880890302311
0	3040	150.528077656971	0.030880890302311
0	3040	150.547614865	0.030880890302311
0	3042	150.628077656971	0.030880890302311
0	3044	150.728077656971	0.030880890302311
0	3046	150.828077656971	0.030880890302311
0	3048	150.928077656971	0.030572081399287
0	3048	150.928077656971	0.030572081399287
0	3050	151.028077656971	0.030572081399287
0	3052	151.128077656971	0.030572081399287
0	3052	151.15893589	0.030572081399287
0	3054	151.228077656971	0.030572081399287
0	3056	151.328077656971	0.030572081399287
0	3058	151.428077656971	0.030572081399287
0	3060	151.528077656971	0.030572081399287
0	3061	151.607081008	0.030572081399287
0	3062	151.628077656971	0.030572081399287
0	3064	151.728077656971	0.030572081399287
0	3066	151.828077656971	0.030572081399287
0	3068	151.928077656971	0.030572081399287
0	3069	152.024878783	0.030572081399287
0	3070	152.028077656971	0.030572081399287
0	3072	152.128077656971	0.030572081399287
0	3074	152.228077656971	0.030572081399287
0	3076	152.328077656971	0.030266360585295
0	3076	152.328077656971	0.030266360585295
0	3077	152.413290427	0.030266360585295
0	3078	152.428077656971	0.030266360585295
0	3080	152.528077656971	0.030266360585295
0	3082	152.628077656971	0.030266360585295
0	3084	152.728077656971	0.030266360585295
0	3086	152.828077656971	0.030266360585295
0	3086	152.846504554	0.030266360585295
0	3088	152.928077656971	0.030266360585295
0	3090	153.028077656971	0.030266360585295
0	3092	153.128077656971	0.030266360585295
0	3094	153.228077656971	0.030266360585295
0	3095	153.28570495	0.030266360585295
0	3096	153.328077656971	0.030266360585295
0	3098	153.428077656971	0.030266360585295
0	3100	153.528077656971	0.030266360585295
0	3102	153.628077656971	0.030266360585295
0	3104	153.728077656971	0.029963696979442
0	3104	153.728077656971	0.029963696979442
0	3105	153.791887498	0.029963696979442
0	3106	153.828077656971	0.029963696979442
0	3108	153.928077656971	0.029963696979442
0	3110	154.028077656971	0.029963696979442
0	3112	154.128077656971	0.029963696979442
0	3113	154.223504023	0.029963696979442
0	3114	154.228077656971	0.029963696979442
0	3116	154.328077656971	0.029963696979442
0	3118	154.428077656971	0.029963696979442
0	3120	154.528077656971	0.029963696979442
0	3122	154.628077656971	0.029963696979442
0	3122	154.65568282	0.029963696979442
0	3124	154.728077656971	0.029963696979442
0	3126	154.828077656971	0.029963696979442
0	3128	154.928077656971	0.029963696979442
0	3130	155.028077656971	0.029963696979442
0	3132	155.128077656971	0.029664060009647
0	3132	155.128077656971	0.029664060009647
0	3132	155.14322179	0.029664060009647
0	3134	155.228077656971	0.029664060009647
0	3136	155.328077656971	0.029664060009647
0	3138	155.428077656971	0.029664060009647
0	3140	155.528077656971	0.029664060009647
0	3142	155.596499233319	0.029664060009647
0	3143	155.628077656971	0.029790373704255
0	3144	155.680484230907	0.03
0	3145	155.712280594	0.030127185452372
0	3146	155.728077656971	0.030190373704256
0	3148	155.805484230907	0.0305
0	3149	155.828077656971	0.030590373704256
0	3151	155.928077656971	0.030990373704256
0	3152	155.930484230907	0.031
0	3154	156.028077656971	0.031390373704256
0	3155	156.055484230907	0.0315
0	3157	156.128077656971	0.031790373704256
0	3159	156.180484230907	0.032
0	3160	156.228077656971	0.032190373704256
0	3161	156.278868997	0.032393539064372
0	3162	156.305484230907	0.0325
0	3163	156.328077656971	0.032590373704256
0	3165	156.408106934385	0.032910490813912
0	3166	156.430484230907	0.033
0	3168	156.508106934385	0.033310490813912
0	3169	156.555484230907	0.0335
0	3171	156.608106934385	0.033710490813912
0	3173	156.680484230907	0.034
0	3174	156.708106934385	0.034110490813912
0	3176	156.805484230907	0.0345
0	3177	156.808106934385	0.034510490813912
0	3177	156.856888264	0.034705616132372
0	3179	156.908106934385	0.034910490813912
0	3180	156.930484230907	0.035
0	3182	157.008106934385	0.035310490813912
0	3183	157.055484230907	0.0355
0	3185	157.108106934385	0.035710490813912
0	3185	157.151903389	0.035885676632372
0	3187	157.180484230907	0.036
0	3188	157.208106934385	0.036110490813912
0	3190	157.305484230907	0.036135
0	3190	157.305484230907	0.036135
0	3191	157.308106934385	0.036145490813912
0	3193	157.396734230907	0.0365
0	3194	157.408106934385	0.036545490813912
0	3196	157.508106934385	0.036945490813912
0	3197	157.521734230907	0.037
0	3199	157.608106934385	0.037345490813912
0	3200	157.646734230907	0.0375
0	3200	157.670943328	0.037596836388372
0	3202	157.708106934385	0.037745490813912
0	3203	157.771734230907	0.038
0	3205	157.808106934385	0.038145490813912
0	3207	157.896734230907	0.0385
0	3208	157.908106934385	0.038545490813912
0	3210	158.008106934385	0.038945490813912
0	3211	158.021734230907	0.039
0	3213	158.108106934385	0.039345490813912
0	3214	158.146734230907	0.0395
0	3215	158.186935999	0.039660807072372
0	3216	158.208106934385	0.039745490813912
0	3217	158.271734230907	0.04
0	3219	158.308106934385	0.040145490813912
0	3221	158.396734230907	0.0405
0	3222	158.408106934385	0.040545490813912
0	3224	158.508106934385	0.040945490813912
0	3225	158.521734230907	0.041
0	3227	158.608106934385	0.041345490813912
0	3227	158.624825707	0.041412365904372
0	3228	158.646734230907	0.0415
0	3230	158.708106934385	0.041745490813912
0	3231	158.771734230907	0.042
0	3233	158.808106934385	0.042145490813912
0	3235	158.896734230907	0.0425
0	3236	158.908106934385	0.042545490813912
0	3238	159.008106934385	0.042945490813912
0	3239	159.021734230907	0.043
0	3240	159.075562642	0.043215313644372
0	3241	159.108106934385	0.043345490813912
0	3242	159.146734230907	0.0435
0	3244	159.208106934385	0.043745490813912
0	3245	159.271734230907	0.044
0	3247	159.308106934385	0.044145490813912
0	3249	159.396734230907	0.0445
0	3250	159.408106934385	0.044100035905773
0	3250	159.408106934385	0.044100035905773
0	3252	159.508106934385	0.044500035905773
0	3253	159.521734230907	0.045
0	3254	159.581366971	0.045238530960372
0	3255	159.608106934385	0.045345490813912
0	3256	159.646734230907	0.0455
0	3258	159.708106934385	0.045745490813912
0	3259	159.771734230907	0.046
0	3261	159.808106934385	0.046145490813912
0	3263	159.896734230907	0.0465
0	3264	159.908106934385	0.046545490813912
0	3266	160.008106934385	0.046945490813912
0	3267	160.021734230907	0.047
0	3268	160.081140235	0.047237624016372
0	3269	160.108106934385	0.047345490813912
0	3270	160.146734230907	0.0475
0	3272	160.208106934385	0.047745490813912
0	3273	160.271734230907	0.048
0	3275	160.308106934385	0.048145490813912
0	3277	160.396734230907	0.0485
0	3278	160.408106934385	0.048545490813912
0	3280	160.508106934385	0.048456035905773
0	3280	160.508106934385	0.048456035905773
0	3281	160.521734230907	0.049
0	3281	160.567205947	0.049181886864372
0	3283	160.608106934385	0.049345490813912
0	3284	160.646734230907	0.0495
0	3286	160.708106934385	0.049745490813912
0	3287	160.771734230907	0.05
0	3289	160.808106934385	0.05
0	3291	160.908106934385	0.05
0	3293	161.008106934385	0.05
0	3294	161.084507221	0.05
0	3295	161.108106934385	0.05
0	3297	161.208106934385	0.05
0	3299	161.308106934385	0.05
0	3301	161.408106934385	0.05
0	3303	161.508106934385	0.05
0	3305	161.608106934385	0.05
0	3305	161.646033613	0.05
0	3307	161.708106934385	0.05
0	3309	161.808106934385	0.05
0	3311	161.908106934385	0.05
0	3313	162.008106934385	0.05
0	3315	162.108106934385	0.05
0	3315	162.127192693	0.05
0	3317	162.208106934385	0.05
0	3319	162.308106934385	0.05
0	3321	162.408106934385	0.05
0	3321	162.424181695	0.05
0	3323	162.508106934385	0.05
0	3325	162.608106934385	0.05
0	3327	162.689165943411	0.05
0	3327	162.706372735	0.05
0	3329	162.789165943411	0.05
0	3331	162.889165943411	0.05
0	3332	162.982782559	0.05
0	3333	162.989165943411	0.05
0	3335	163.089165943411	0.05
0	3337	163.189165943411	0.05
0	3337	163.257182071	0.05
0	3339	163.289165943411	0.05
0	3341	163.389165943411	0.05
0	3343	163.489165943411	0.05
0	3345	163.589165943411	0.05
0	3345	163.663258147	0.05
0	3347	163.689165943411	0.05
0	3349	163.789165943411	0.05
0	3351	163.889165943411	0.05
0	3351	163.959263668	0.05
0	3353	163.989165943411	0.05
0	3355	164.089165943411	0.05
0	3357	164.189165943411	0.05
0	3359	164.289165943411	0.05
0	3361	164.389165943411	0.05
0	3363	164.489165943411	0.05
0	3363	164.495295001	0.05
0	3365	164.589165943411	0.05
0	3367	164.689165943411	0.05
0	3369	164.789165943411	0.05
0	3371	164.889165943411	0.05
0	3373	164.989165943411	0.05
0	3374	165.088566355	0.05
0	3375	165.089165943411	0.05
0	3377	165.189165943411	0.05
0	3379	165.289165943411	0.05
0	3381	165.389165943411	0.05
0	3383	165.489165943411	0.05
0	3383	165.538650304	0.05
0	3385	165.589165943411	0.05
0	3387	165.689165943411	0.05
0	3389	165.789165943411	0.05
0	3391	165.889165943411	0.05
0	3391	165.93620386	0.05
0	3393	165.989165943411	0.05
0	3395	166.089165943411	0.05
0	3397	166.189165943411	0.05
0	3397	166.210861177	0.05
[...]
2	5372	263.448269088575	0.0495
2	5372	263.448269088575	0.0495
2	5374	263.548269088575	0.0495
2	5374	263.555262394	0.0495
2	5376	263.648269088575	0.0495
2	5378	263.748269088575	0.0495
2	5380	263.848269088575	0.0495
2	5382	263.948269088575	0.0495
2	5384	264.048269088575	0.0495
2	5386	264.148269088575	0.0495
2	5387	264.211960207	0.0495
2	5388	264.248269088575	0.0495
2	5390	264.348269088575	0.0495
2	5392	264.448269088575	0.0495
2	5394	264.548269088575	0.0495
2	5396	264.648269088575	0.0495
2	5398	264.748269088575	0.0495
2	5399	264.821441488	0.0495
2	5400	264.848269088575	0.049005
2	5400	264.848269088575	0.049005
2	5402	264.948269088575	0.049005
2	5404	265.048269088575	0.049005
2	5406	265.148269088575	0.049005
2	5408	265.248269088575	0.049005
2	5410	265.348269088575	0.049005
2	5412	265.448269088575	0.049005
2	5413	265.522291819	0.049005
2	5414	265.548269088575	0.049005
2	5416	265.648269088575	0.049005
2	5418	265.748269088575	0.049005
2	5420	265.848269088575	0.049005
2	5422	265.948269088575	0.049005
2	5424	266.048269088575	0.049005
2	5426	266.148269088575	0.049005
2	5426	266.151046387	0.049005
2	5428	266.248269088575	0.049005
2	5430	266.348269088575	0.04851495
2	5430	266.348269088575	0.04851495
2	5432	266.448269088575	0.04851495
2	5434	266.548269088575	0.04851495
2	5434	266.577153541	0.04851495
2	5436	266.648269088575	0.04851495
2	5438	266.748269088575	0.04851495
2	5440	266.848269088575	0.04851495
2	5442	266.948269088575	0.04851495
2	5443	267.042482155	0.04851495
2	5444	267.048269088575	0.04851495
2	5446	267.148269088575	0.04851495
2	5448	267.248269088575	0.04851495
2	5450	267.348269088575	0.04851495
2	5452	267.448269088575	0.04851495
2	5452	267.502247518	0.04851495
2	5454	267.548269088575	0.04851495
2	5456	267.648269088575	0.04851495
2	5458	267.748269088575	0.0480298005
2	5458	267.748269088575	0.0480298005
2	5460	267.848269088575	0.0480298005
2	5462	267.948269088575	0.0480298005
2	5463	268.025943184	0.0480298005
2	5464	268.048269088575	0.0480298005
2	5466	268.148269088575	0.0480298005
2	5468	268.248269088575	0.0480298005
2	5470	268.348269088575	0.0480298005
2	5472	268.448269088575	0.0480298005
2	5472	268.461737938	0.0480298005
2	5474	268.548269088575	0.0480298005
2	5476	268.648269088575	0.0480298005
2	5478	268.748269088575	0.0480298005
2	5480	268.848269088575	0.0480298005
2	5481	268.928238439	0.0480298005
2	5482	268.948269088575	0.0480298005
2	5484	269.048269088575	0.0480298005
2	5486	269.148269088575	0.047549502495
2	5486	269.148269088575	0.047549502495
2	5488	269.248269088575	0.047549502495
2	5490	269.348269088575	0.047549502495
2	5491	269.447850976	0.047549502495
2	5492	269.448269088575	0.047549502495
2	5494	269.548269088575	0.047549502495
2	5496	269.648269088575	0.047549502495
2	5498	269.748269088575	0.047549502495
2	5500	269.848269088575	0.047549502495
2	5501	269.942321719	0.047549502495
2	5502	269.948269088575	0.047549502495
2	5504	270.048269088575	0.047549502495
2	5506	270.148269088575	0.047549502495
2	5508	270.248269088575	0.047549502495
2	5510	270.348269088575	0.047549502495
2	5511	270.417513349	0.047549502495
2	5512	270.448269088575	0.047549502495
2	5514	270.548269088575	0.04707400747005
2	5514	270.548269088575	0.04707400747005
2	5516	270.648269088575	0.04707400747005
2	5518	270.748269088575	0.04707400747005
2	5520	270.848269088575	0.04707400747005
2	5520	270.907019446	0.04707400747005
2	5522	270.948269088575	0.04707400747005
2	5524	271.048269088575	0.04707400747005
2	5526	271.148269088575	0.04707400747005
2	5528	271.248269088575	0.04707400747005
2	5530	271.348269088575	0.04707400747005
2	5532	271.448269088575	0.04707400747005
2	5532	271.459259185	0.04707400747005
2	5534	271.548269088575	0.04707400747005
2	5536	271.648269088575	0.04707400747005
2	5538	271.748269088575	0.04707400747005
2	5540	271.848269088575	0.04707400747005
2	5542	271.948269088575	0.04707400747005
2	5542	271.949773699	0.04707400747005
2	5544	272.048269088575	0.04707400747005
2	5546	272.148269088575	0.04707400747005
2	5548	272.248269088575	0.04707400747005
2	5550	272.348269088575	0.04707400747005
2	5552	272.448269088575	0.04707400747005
2	5552	272.488592524	0.04707400747005
2	5554	272.548269088575	0.04707400747005
2	5556	272.648269088575	0.04707400747005
2	5558	272.748269088575	0.04707400747005
2	5560	272.848269088575	0.04707400747005
2	5562	272.948269088575	0.04707400747005
2	5562	272.95273642	0.04707400747005
2	5564	273.048269088575	0.04707400747005
2	5566	273.148269088575	0.04707400747005
2	5568	273.248269088575	0.04707400747005
2	5570	273.348269088575	0.04707400747005
2	5571	273.442492762	0.04660326739535
2	5571	273.442492762	0.04660326739535
2	5572	273.448269088575	0.04660326739535
2	5574	273.548269088575	0.04660326739535
2	5576	273.648269088575	0.04660326739535
2	5578	273.748269088575	0.04660326739535
2	5580	273.848269088575	0.04660326739535
2	5582	273.948269088575	0.04660326739535
2	5582	273.971461018	0.04660326739535
2	5584	274.048269088575	0.04660326739535
2	5586	274.148269088575	0.04660326739535
2	5588	274.248269088575	0.04660326739535
2	5590	274.348269088575	0.04660326739535
2	5590	274.372294204	0.04660326739535
2	5592	274.448269088575	0.04660326739535
2	5594	274.548269088575	0.04660326739535
2	5596	274.648269088575	0.04660326739535
2	5598	274.748269088575	0.04660326739535
2	5600	274.848269088575	0.046137234721396
2	5600	274.848269088575	0.046137234721396
2	5600	274.851605395	0.046137234721396
2	5602	274.948269088575	0.046137234721396
2	5604	275.048269088575	0.046137234721396
2	5606	275.148269088575	0.046137234721396
2	5608	275.248269088575	0.046137234721396
2	5608	275.275884301	0.046137234721396
2	5610	275.348269088575	0.046137234721396
2	5612	275.448269088575	0.046137234721396
2	5614	275.548269088575	0.046137234721396
2	5616	275.648269088575	0.046137234721396
2	5616	275.674066702	0.046137234721396
2	5618	275.748269088575	0.046137234721396
2	5620	275.848269088575	0.046137234721396
2	5622	275.948269088575	0.046137234721396
2	5622	275.965436728	0.046137234721396
2	5624	276.048269088575	0.046137234721396
2	5626	276.148269088575	0.045675862374182
2	5626	276.148269088575	0.045675862374182
2	5628	276.248269088575	0.045675862374182
2	5629	276.297971630747	0.045675862374182
2	5631	276.348269088575	0.045877052205494
2	5632	276.379006037201	0.046
2	5634	276.448269088575	0.046277052205496
2	5634	276.471791287	0.046371140999196
2	5635	276.504006037201	0.0465
2	5637	276.548269088575	0.046677052205496
2	5639	276.629006037201	0.047
2	5640	276.648269088575	0.047077052205496
2	5642	276.748269088575	0.047477052205496
2	5643	276.754006037201	0.0475
2	5645	276.848269088575	0.047877052205496
2	5646	276.879006037201	0.048
2	5647	276.919569214	0.048162252707196
2	5648	276.948269088575	0.048277052205496
2	5649	277.004006037201	0.0485
2	5651	277.048269088575	0.048677052205496
2	5653	277.129006037201	0.049
2	5654	277.148269088575	0.049077052205496
2	5656	277.248269088575	0.048982281683441
2	5656	277.248269088575	0.048982281683441
2	5657	277.254006037201	0.0495
2	5659	277.348269088575	0.049877052205496
2	5659	277.370977183	0.049967884583196
2	5660	277.379006037201	0.05
2	5662	277.448269088575	0.05
2	5664	277.548269088575	0.05
2	5666	277.648269088575	0.05
2	5668	277.748269088575	0.05
2	5669	277.827559522	0.05
2	5670	277.848269088575	0.05
2	5672	277.948269088575	0.05
2	5674	278.048269088575	0.05
2	5676	278.148269088575	0.05
2	5677	278.214724894	0.05
2	5678	278.248269088575	0.05
2	5680	278.348269088575	0.05
2	5681	278.356247676695	0.05
2	5683	278.456247676695	0.05
2	5683	278.506734523	0.0495
2	5683	278.506734523	0.0495
2	5685	278.556247676695	0.04969805261478
2	5687	278.656247676695	0.05
2	5689	278.756247676695	0.05
2	5689	278.801791924	0.05
2	5691	278.856247676695	0.05
2	5693	278.956247676695	0.05
2	5695	279.056247676695	0.05
2	5697	279.156247676695	0.05
2	5699	279.256247676695	0.05
2	5699	279.306119782	0.05
2	5701	279.356247676695	0.05
2	5703	279.456247676695	0.05
2	5705	279.556247676695	0.05
2	5707	279.656247676695	0.05
2	5709	279.756247676695	0.05
2	5709	279.788656684	0.05
2	5711	279.856247676695	0.05
2	5713	279.956247676695	0.05
2	5715	280.056247676695	0.05
2	5717	280.156247676695	0.05
2	5717	280.204396735	0.05
2	5719	280.256247676695	0.05
2	5721	280.356247676695	0.05
2	5723	280.456247676695	0.05
2	5725	280.556247676695	0.05
2	5727	280.656247676695	0.05
2	5728	280.729604677	0.05
2	5729	280.756247676695	0.05
2	5731	280.856247676695	0.05
2	5733	280.956247676695	0.05
2	5735	281.056247676695	0.05
2	5737	281.156247676695	0.05
2	5737	281.159551252	0.05
2	5739	281.256247676695	0.05
2	5741	281.356247676695	0.05
2	5743	281.456247676695	0.05
2	5745	281.556247676695	0.05
2	5746	281.637410122	0.05
2	5747	281.656247676695	0.05
2	5749	281.756247676695	0.05
2	5751	281.856247676695	0.05
2	5753	281.956247676695	0.05
2	5755	282.056247676695	0.05
2	5757	282.156247676695	0.05
2	5758	282.238518877	0.05
2	5759	282.256247676695	0.05
2	5761	282.356247676695	0.05
2	5763	282.456247676695	0.05
2	5765	282.556247676695	0.05
2	5767	282.656247676695	0.05
2	5768	282.729251041	0.05
2	5769	282.756247676695	0.05
2	5771	282.856247676695	0.05
2	5773	282.956247676695	0.05
2	5775	283.056247676695	0.05
2	5776	283.117390951	0.05
2	5777	283.156247676695	0.05
2	5779	283.256247676695	0.05
2	5781	283.356247676695	0.05
2	5781	283.38390367	0.05
2	5783	283.456247676695	0.05
2	5785	283.556247676695	0.05
2	5787	283.656247676695	0.05
2	5789	283.756247676695	0.05
2	5790	283.850583799	0.05
2	5791	283.856247676695	0.05
2	5793	283.956247676695	0.05
2	5795	284.056247676695	0.05
2	5797	284.156247676695	0.05
2	5799	284.256247676695	0.05
2	5801	284.356247676695	0.05
2	5801	284.379162181	0.05
2	5803	284.456247676695	0.05
2	5805	284.556247676695	0.05
2	5807	284.656247676695	0.05
2	5809	284.756247676695	0.05
2	5811	284.856247676695	0.05
2	5813	284.956247676695	0.05
2	5814	285.015759466	0.05
2	5815	285.056247676695	0.05
2	5817	285.156247676695	0.05
2	5819	285.256247676695	0.05
2	5821	285.356247676695	0.05
2	5823	285.456247676695	0.05
2	5825	285.556247676695	0.05
2	5826	285.610105984	0.05
2	5827	285.656247676695	0.05
2	5829	285.756247676695	0.05
2	5831	285.856247676695	0.05
2	5833	285.956247676695	0.05
2	5835	286.056247676695	0.05
2	5836	286.142610502	0.05
2	5837	286.156247676695	0.05
2	5839	286.256247676695	0.05
2	5841	286.356247676695	0.05
2	5843	286.456247676695	0.05
2	5845	286.556247676695	0.05
2	5847	286.656247676695	0.05
2	5848	286.722262789	0.05
2	5849	286.756247676695	0.05
2	5851	286.856247676695	0.05
2	5853	286.956247676695	0.05
2	5855	287.056247676695	0.05
2	5857	287.156247676695	0.05
2	5858	287.212811239	0.05
2	5859	287.256247676695	0.05
2	5861	287.356247676695	0.05
2	5863	287.456247676695	0.05
2	5865	287.556247676695	0.05
2	5867	287.656247676695	0.05
2	5867	287.679290014	0.05
2	5869	287.756247676695	0.05
2	5871	287.856247676695	0.05
2	5873	287.956247676695	0.05
2	5875	288.056247676695	0.05
2	5877	288.156247676695	0.05
2	5877	288.167716624	0.05
2	5879	288.256247676695	0.05
2	5881	288.356247676695	0.05
2	5883	288.456247676695	0.05
2	5885	288.556247676695	0.05
2	5887	288.656247676695	0.05
2	5889	288.756247676695	0.05
2	5889	288.758854468	0.05
2	5891	288.856247676695	0.05
2	5893	288.956247676695	0.05
2	5895	289.056247676695	0.05
2	5897	289.156247676695	0.05
2	5899	289.256247676695	0.05
2	5899	289.274758795	0.05
2	5901	289.356247676695	0.05
2	5903	289.456247676695	0.05
2	5905	289.556247676695	0.05
2	5907	289.656247676695	0.05
2	5909	289.756247676695	0.05
2	5911	289.856247676695	0.05
2	5911	289.887690181	0.05
2	5913	289.956247676695	0.05
2	5915	290.056247676695	0.05
2	5917	290.156247676695	0.05
2	5919	290.256247676695	0.05
2	5921	290.356247676695	0.05
2	5923	290.456247676695	0.05
2	5925	290.556247676695	0.05
2	5925	290.577060613	0.05
2	5927	290.656247676695	0.05
2	5929	290.756247676695	0.05
2	5931	290.856247676695	0.05
2	5933	290.956247676695	0.05
2	5935	291.056247676695	0.05
2	5937	291.156247676695	0.05
2	5938	291.233995969	0.05
2	5939	291.256247676695	0.05
2	5941	291.356247676695	0.05
2	5943	291.456247676695	0.05
2	5945	291.556247676695	0.05
2	5947	291.656247676695	0.05
2	5948	291.724065679	0.05
2	5949	291.756247676695	0.05
2	5951	291.856247676695	0.05
2	5953	291.956247676695	0.05
2	5955	292.056247676695	0.05
2	5956	292.118792041	0.05
2	5957	292.156247676695	0.05
2	5959	292.256247676695	0.05
2	5961	292.356247676695	0.05
2	5962	292.415779303	0.05
2	5963	292.456247676695	0.05
2	5965	292.556247676695	0.05
2	5967	292.656247676695	0.05
2	5969	292.756247676695	0.05
2	5971	292.856247676695	0.05
2	5971	292.90358305	0.05
2	5973	292.956247676695	0.05
2	5975	293.056247676695	0.05
2	5977	293.156247676695	0.05
2	5979	293.256247676695	0.05
2	5981	293.356247676695	0.05
2	5983	293.456247676695	0.05
2	5984	293.541533527	0.05
2	5985	293.556247676695	0.05
2	5987	293.656247676695	0.05
2	5989	293.756247676695	0.05
2	5991	293.856247676695	0.05
2	5993	293.956247676695	0.05
2	5995	294.056247676695	0.05
2	5996	294.152055628	0.05
2	5997	294.156247676695	0.05
2	5999	294.256247676695	0.05
2	6001	294.356247676695	0.05
2	6003	294.456247676695	0.05
2	6005	294.556247676695	0.05
2	6007	294.656247676695	0.05
2	6008	294.717465526	0.05
2	6009	294.756247676695	0.05
2	6011	294.856247676695	0.05
2	6013	294.956247676695	0.05
2	6015	295.056247676695	0.05
2	6017	295.156247676695	0.05
2	6019	295.256247676695	0.05
2	6019	295.282497814	0.05
2	6021	295.356247676695	0.05
2	6023	295.456247676695	0.05
2	6025	295.556247676695	0.05
2	6027	295.656247676695	0.05
2	6029	295.756247676695	0.05
2	6030	295.823068741	0.05
2	6031	295.856247676695	0.05
2	6033	295.956247676695	0.05
2	6035	296.056247676695	0.05
2	6037	296.156247676695	0.05
2	6039	296.256247676695	0.05
2	6041	296.356247676695	0.05
2	6042	296.424708592	0.05
2	6043	296.456247676695	0.05
2	6045	296.556247676695	0.05
2	6047	296.656247676695	0.05
2	6049	296.756247676695	0.05
2	6051	296.856247676695	0.05
2	6053	296.956247676695	0.05
2	6053	297.004068337	0.0495
2	6053	297.004068337	0.0495
2	6055	297.056247676695	0.04970871735878
2	6057	297.156247676695	0.05
2	6059	297.256247676695	0.05
2	6061	297.356247676695	0.05
2	6063	297.456247676695	0.05
2	6063	297.476776465	0.05
2	6065	297.556247676695	0.05
2	6067	297.656247676695	0.05
2	6069	297.756247676695	0.05
2	6071	297.856247676695	0.05
2	6073	297.956247676695	0.05
2	6075	298.056247676695	0.05
2	6077	298.156247676695	0.05
2	6077	298.167888682	0.05
2	6079	298.256247676695	0.05
2	6081	298.356247676695	0.05
2	6083	298.456247676695	0.05
2	6085	298.556247676695	0.05
2	6087	298.656247676695	0.05
2	6088	298.734586285	0.05
2	6089	298.756247676695	0.05
2	6091	298.856247676695	0.05
2	6093	298.956247676695	0.05
2	6095	299.056247676695	0.05
2	6097	299.156247676695	0.05
2	6100	299.256247676695	0.05
2	6100	299.276569096	0.05
2	6102	299.356247676695	0.05
2	6104	299.456247676695	0.05
2	6106	299.556247676695	0.05
2	6108	299.656247676695	0.05
2	6110	299.756247676695	0.05
2	6111	299.820940981	0.0495
2	6111	299.820940981	0.0495
2	6112	299.856247676695	0.04964122678278
2	6114	299.956247676695	0.05
2	6116	300.056247676695	0.05
2	6118	300.156247676695	0.05
2	6120	300.256247676695	0.05
2	6121	300.340495516	0.05
2	6122	300.356247676695	0.05
2	6124	300.456247676695	0.05
2	6126	300.556247676695	0.05
2	6128	300.656247676695	0.05
2	6129	300.755314516	0.05
2	6130	300.756247676695	0.05
2	6132	300.856247676695	0.05
2	6134	300.956247676695	0.05
2	6135	301.032331003	0.05
2	6136	301.056247676695	0.05
2	6138	301.156247676695	0.0495
2	6138	301.156247676695	0.0495
2	6140	301.256247676695	0.0499
2	6142	301.356247676695	0.05
2	6144	301.456247676695	0.05
2	6144	301.500955786	0.05
2	6146	301.556247676695	0.05
2	6148	301.656247676695	0.05
2	6150	301.756247676695	0.05
2	6152	301.856247676695	0.05
2	6154	301.956247676695	0.05
2	6154	302.005443334	0.05
2	6156	302.056247676695	0.05
2	6158	302.156247676695	0.05
2	6160	302.256247676695	0.05
2	6162	302.356247676695	0.05
2	6164	302.456247676695	0.05
2	6164	302.458228726	0.05
2	6166	302.556247676695	0.0495
2	6166	302.556247676695	0.0495
2	6168	302.656247676695	0.0499
2	6170	302.756247676695	0.05
2	6172	302.856247676695	0.05
2	6174	302.956247676695	0.05
2	6175	303.017296132	0.05
2	6176	303.056247676695	0.05
2	6178	303.156247676695	0.05
2	6180	303.256247676695	0.05
2	6182	303.356247676695	0.05
2	6183	303.451120477	0.05
2	6184	303.456247676695	0.05
2	6186	303.556247676695	0.05
2	6188	303.656247676695	0.05
2	6189	303.66179246757	0.05
2	6191	303.756247676695	0.05
2	6193	303.856247676695	0.05
2	6195	303.956247676695	0.05
2	6195	303.986727799	0.0495
2	6195	303.986727799	0.0495
2	6197	304.056247676695	0.0495
2	6199	304.156247676695	0.0495
2	6201	304.256247676695	0.0495
2	6203	304.356247676695	0.0495
2	6205	304.456247676695	0.0495
2	6205	304.463329969	0.0495
2	6207	304.556247676695	0.0495
2	6209	304.656247676695	0.0495
2	6210	304.753404466	0.0495
2	6211	304.756247676695	0.0495
2	6213	304.856247676695	0.0495
2	6215	304.956247676695	0.0495
2	6217	305.056247676695	0.0495
2	6219	305.156247676695	0.0495
2	6220	305.216189422	0.0495
2	6221	305.256247676695	0.0495
2	6223	305.356247676695	0.0495
2	6225	305.456247676695	0.0495
2	6226	305.515630744	0.0495
2	6227	305.556247676695	0.0495
2	6229	305.656247676695	0.0495
2	6231	305.756247676695	0.0495
2	6233	305.856247676695	0.0495
2	6235	305.956247676695	0.0495
2	6235	305.99537878	0.0495
2	6237	306.056247676695	0.0495
2	6239	306.156247676695	0.0495
2	6241	306.256247676695	0.0495
2	6243	306.356247676695	0.0495
2	6244	306.445632721	0.0495
2	6245	306.456247676695	0.0495
2	6247	306.556247676695	0.0495
2	6249	306.656247676695	0.0495
2	6251	306.756247676695	0.0495
2	6253	306.856247676695	0.0495
2	6255	306.956247676695	0.0495
2	6256	306.993282424	0.0495
2	6257	307.056247676695	0.0495
2	6259	307.156247676695	0.0495
2	6261	307.256247676695	0.0495
2	6261	307.284562012	0.0495
2	6263	307.356247676695	0.0495
2	6265	307.456247676695	0.0495
2	6267	307.556247676695	0.0495
2	6269	307.656247676695	0.0495
2	6270	307.732766458	0.0495
2	6271	307.756247676695	0.0495
2	6273	307.856247676695	0.0495
2	6275	307.956247676695	0.0495
2	6276	308.012749183	0.0495
2	6277	308.056247676695	0.0495
2	6279	308.156247676695	0.0495
2	6281	308.256247676695	0.0495
2	6283	308.356247676695	0.0495
2	6285	308.456247676695	0.0495
2	6287	308.556247676695	0.0495
2	6288	308.599204237	0.0495
2	6289	308.656247676695	0.0495
2	6291	308.756247676695	0.0495
2	6293	308.856247676695	0.0495
2	6295	308.956247676695	0.0495
2	6297	309.056247676695	0.0495
2	6299	309.156247676695	0.0495
2	6299	309.165146569	0.0495
2	6301	309.256247676695	0.0495
2	6303	309.356247676695	0.0495
2	6305	309.456247676695	0.0495
2	6307	309.556247676695	0.0495
2	6308	309.59995768	0.0495
2	6309	309.656247676695	0.0495
2	6311	309.756247676695	0.0495
2	6313	309.856247676695	0.0495
2	6314	309.890281276	0.0495
2	6315	309.956247676695	0.0495
2	6317	310.056247676695	0.0495
2	6319	310.156247676695	0.0495
2	6321	310.256247676695	0.0495
2	6322	310.30505182	0.0495
2	6323	310.356247676695	0.0495
2	6325	310.456247676695	0.0495
2	6327	310.556247676695	0.0495
2	6329	310.656247676695	0.0495
2	6331	310.756247676695	0.0495
2	6331	310.773988546	0.0495
2	6333	310.856247676695	0.0495
2	6335	310.956247676695	0.0495
2	6337	311.056247676695	0.0495
2	6339	311.156247676695	0.0495
2	6339	311.182869016	0.0495
2	6341	311.256247676695	0.0495
2	6343	311.356247676695	0.0495
2	6344	311.45408299	0.0495
3	0	0	0.004
3	940	46.974101355068	0
3	1054	52.564077813438	0.004
3	1924	95.770562137628	0
3	2425	120.051948736865	0.004
3	4252	208.875539926999	0
3	4332	212.819616638604	0.004
3	4879	239.933559130424	0
3	5629	276.297971630747	0.004
3	6189	303.66179246757	0
4	0	0	0.004
4	461	23.08057828677	0
4	1998	99.452072761948	0.004
4	2041	100.9317777061	0
4	3142	155.596499233319	0.004
4	4315	212.01108748645	0
4	4885	240.162412310791	0.004
4	4895	240.531267322079	0
4	5296	260.456875893042	0.004
4	6098	299.161309249546	0
5	0	0	0.004
5	940	46.974101355068	0
5	1054	52.564077813438	0.004
5	1924	95.770562137628	0
5	2425	120.051948736865	0.004
5	4252	208.875539926999	0
5	4332	212.819616638604	0.004
5	4879	239.933559130424	0
5	5629	276.297971630747	0.004
5	6189	303.66179246757	0

