version 2
run Mysterio_ex2-0-20210629-17:08:48-6078
attr configname Mysterio_ex2
attr datetime 20210629-17:08:48
attr experiment Mysterio_ex2
attr inifile omnetpp.ini
attr iterationvars ""
attr iterationvarsf ""
attr measurement ""
attr network MysterioCommunication2
attr processid 6078
attr repetition 0
attr replication #0
attr resultdir results
attr runnumber 0
attr seedset 0
param *.host[*].mobility.numeroDrones 2
param *.numHosts 2
param *.host[*].osgModel "\"3d/drone.ive.100.scale.0,0,90.rot\""
param *.canvasVisualizer.energyStorageVisualizer.displayEnergyStorages true
param *.host[*].hasStatus true
param *.host[*].energyStorage.typename "\"SimpleEpEnergyStorage\""
param *.host[*].wlan[*].radio.energyConsumer.typename "\"StateBasedEpEnergyConsumer\""
param *.host[*].energyManagement.typename "\"SimpleEpEnergyManagement\""
param *.host[*].energyStorage.nominalCapacity 0.05J
param *.host[*].energyManagement.nodeShutdownCapacity "0.1 * energyStorage.nominalCapacity"
param *.host[*].energyManagement.nodeStartCapacity "0.5 * energyStorage.nominalCapacity"
param *.host[*].energyStorage.initialCapacity 0.05J
param *.host[*].energyGenerator.typename "\"AlternatingEpEnergyGenerator\""
param *.host[*].energyGenerator.powerGeneration 4mW
param *.host[*].energyGenerator.sleepInterval exponential(25s)
param *.host[*].energyGenerator.generationInterval exponential(25s)
param *.host[*].mobility.typename "\"UAVMobility\""
param *.host[*].mobility.changeInterval 1s
param *.host[*].mobility.initialMovementHeading "uniform(0deg, 360deg)"
param *.host[*].mobility.initialMovementElevation "uniform(-90deg, 90deg)"
param *.host[*].mobility.angleDelta uniform(-10deg,10deg)
param *.host[*].mobility.rotationAxisAngle uniform(-10deg,10deg)
param *.host[*].mobility.speed uniform(10mps,20mps)
param *.host[*].mobility.faceForward false
param *.host[*].mobility.initialX 220m
param *.host[*].mobility.initialY 220m
param *.host[*].mobility.initialZ 300m
param **.constraintAreaMinZ 200m
param *.visualizer.osgVisualizer.typename "\"IntegratedOsgVisualizer\""
param *.visualizer.osgVisualizer.sceneVisualizer.clearColor "\"skyblue\""
param *.visualizer.osgVisualizer.sceneVisualizer.sceneImage "\"showcases/desert\""
param *.visualizer.osgVisualizer.sceneVisualizer.sceneImageSize 5000m
param *.visualizer.osgVisualizer.sceneVisualizer.axisLength 1000m
param *.visualizer.osgVisualizer.sceneVisualizer.sceneMinX -2000m
param *.visualizer.osgVisualizer.sceneVisualizer.sceneMinY -2000m
param *.visualizer.osgVisualizer.sceneVisualizer.sceneMinZ 0m
param *.visualizer.osgVisualizer.sceneVisualizer.sceneMaxX 3000m
param *.visualizer.osgVisualizer.sceneVisualizer.sceneMaxY 3000m
param *.visualizer.osgVisualizer.sceneVisualizer.sceneMaxZ 1000m
param *.visualizer.osgVisualizer.networkNodeVisualizer.displayModuleName false
param *.visualizer.*.mobilityVisualizer.displayMobility true
param *.visualizer.*.mobilityVisualizer.displayPositions true
param *.visualizer.*.mobilityVisualizer.displayOrientations false
param *.visualizer.*.mobilityVisualizer.displayVelocities true
param *.visualizer.*.mobilityVisualizer.displayMovementTrails true
param *.visualizer.*.mobilityVisualizer.animationSpeed 1
param **.constraintAreaMinX 0m
param **.constraintAreaMinY 0m
param **.constraintAreaMinZ 0m
param **.constraintAreaMaxX 1000m
param **.constraintAreaMaxY 1000m
param **.constraintAreaMaxZ 1000m
param **.networkConfiguratorModule "\"\""

vector 0 MysterioCommunication2.host[0].energyStorage residualEnergyCapacity:vector ETV
attr interpolationmode linear
attr source residualEnergyCapacityChanged
attr title "Residual energy capacity, vector"
vector 1 MysterioCommunication2.host[0].energyGenerator powerGeneration:vector ETV
attr interpolationmode sample-hold
attr source powerGenerationChanged
attr title "Power generation, vector"
vector 2 MysterioCommunication2.host[1].energyStorage residualEnergyCapacity:vector ETV
attr interpolationmode linear
attr source residualEnergyCapacityChanged
attr title "Residual energy capacity, vector"
vector 3 MysterioCommunication2.host[1].energyGenerator powerGeneration:vector ETV
attr interpolationmode sample-hold
attr source powerGenerationChanged
attr title "Power generation, vector"
vector 4 MysterioCommunication2.host[0].energyStorage powerGeneration:vector ETV
attr interpolationmode sample-hold
attr source powerGenerationChanged
attr title "Power generation, vector"
vector 5 MysterioCommunication2.host[1].energyStorage powerGeneration:vector ETV
attr interpolationmode sample-hold
attr source powerGenerationChanged
attr title "Power generation, vector"
0	0	0	0.05
0	0	0.1	0.05
0	2	0.104350049	0.05
0	2	0.130828836	0.05
0	2	0.156129426	0.05
0	2	0.178603491	0.05
0	3	0.2	0.05
0	4	0.222274799	0.05
0	4	0.270306677	0.05
0	5	0.3	0.05
0	6	0.303236843	0.05
0	6	0.345068423	0.05
0	6	0.370208952	0.05
0	6	0.398498901	0.05
0	7	0.4	0.05
0	8	0.433062651	0.05
0	8	0.459827017	0.05
0	8	0.484369506	0.05
0	9	0.5	0.05
0	10	0.507776251	0.05
0	10	0.552497762	0.05
0	10	0.577583779	0.05
0	11	0.6	0.05
0	12	0.612959657	0.05
0	12	0.636651379	0.05
0	12	0.665680235	0.05
0	13	0.7	0.05
0	14	0.706563105	0.05
0	14	0.743649017	0.05
0	14	0.79640678	0.05
0	15	0.8	0.05
0	16	0.845223557	0.05
0	16	0.880450535	0.05
0	17	0.9	0.05
0	18	0.921466334	0.05
0	19	1	0.05
0	20	1.007793581	0.05
0	20	1.035046871	0.05
0	20	1.078041017	0.05
0	21	1.1	0.05
0	22	1.176947676	0.05
0	23	1.2	0.05
0	25	1.3	0.05
0	26	1.306826499	0.05
0	27	1.4	0.05
0	28	1.405993137	0.05
0	28	1.467670791	0.05
0	29	1.5	0.05
0	30	1.526369159	0.05
0	30	1.573389871	0.05
0	31	1.6	0.05
0	32	1.67261213	0.05
0	33	1.7	0.05
0	35	1.8	0.05
0	36	1.816989718	0.05
0	37	1.9	0.05
0	38	1.901701316	0.05
0	38	1.99304509	0.05
0	39	2	0.05
0	40	2.079115733	0.05
0	41	2.1	0.05
0	42	2.1584262	0.05
0	43	2.2	0.05
0	44	2.210854973	0.05
0	44	2.243402526	0.05
0	44	2.282732945	0.05
0	45	2.3	0.05
0	46	2.319551807	0.05
0	46	2.367906593	0.05
0	47	2.4	0.05
0	48	2.401972768	0.05
0	48	2.42506992	0.05
0	48	2.446171029	0.05
0	48	2.474466252	0.05
0	48	2.495988351	0.05
0	49	2.5	0.05
0	50	2.536932843	0.05
0	50	2.561897929	0.05
0	50	2.590678427	0.05
0	51	2.6	0.05
0	52	2.620180461	0.05
0	52	2.642899867	0.05
0	52	2.68289203	0.05
0	53	2.7	0.05
0	54	2.724993246	0.05
0	54	2.774780872	0.05
0	55	2.8	0.05
0	56	2.830862623	0.05
0	56	2.878391136	0.05
0	57	2.9	0.05
0	58	2.930711218	0.05
0	58	2.977574969	0.05
0	59	3	0.05
0	60	3.017922825	0.05
0	60	3.048204353	0.05
0	60	3.081016606	0.05
0	61	3.1	0.05
0	62	3.121361311	0.05
0	62	3.164647328	0.05
0	62	3.198726982	0.05
0	63	3.2	0.05
0	64	3.257020614	0.05
0	64	3.293915446	0.05
0	65	3.3	0.05
0	66	3.35819178	0.05
0	67	3.4	0.05
0	68	3.407676343	0.05
0	68	3.460359623	0.05
0	69	3.5	0.05
0	70	3.526461786	0.05
0	70	3.593999151	0.05
0	71	3.6	0.05
0	72	3.650219962	0.05
0	73	3.7	0.05
0	74	3.710500653	0.05
0	74	3.756843962	0.05
0	75	3.8	0.05
0	76	3.806656391	0.05
0	76	3.873975448	0.05
0	77	3.9	0.05
0	78	3.926491047	0.05
0	78	3.980139435	0.05
0	79	4	0.05
0	80	4.033841763	0.05
0	80	4.086890955	0.05
0	81	4.1	0.05
0	82	4.142499711	0.05
0	82	4.192101009	0.05
0	83	4.2	0.05
0	84	4.227351135	0.05
0	84	4.266120783	0.05
0	85	4.3	0.05
0	86	4.304561856	0.05
0	86	4.336924514	0.05
0	86	4.373867904	0.05
0	87	4.4	0.05
0	88	4.406659915	0.05
0	88	4.430870765	0.05
0	88	4.460567271	0.05
0	88	4.483956521	0.05
0	89	4.5	0.05
0	90	4.508407809	0.05
0	90	4.543150491	0.05
0	90	4.581704361	0.05
0	91	4.6	0.05
0	92	4.60733488	0.05
0	92	4.629103371	0.05
0	92	4.663645532	0.05
0	92	4.688210009	0.05
0	93	4.7	0.05
0	94	4.715501908	0.05
0	94	4.760312262	0.05
0	94	4.798553239	0.05
0	95	4.8	0.05
0	96	4.839935879	0.05
0	96	4.897147858	0.05
0	97	4.9	0.05
0	98	4.948652788	0.05
0	98	4.998522073	0.05
0	99	5	0.05
0	100	5.026010057	0.05
0	100	5.076921704	0.05
0	101	5.1	0.05
0	102	5.121637862	0.05
0	102	5.176667019	0.05
0	103	5.2	0.05
0	104	5.206556665	0.05
0	104	5.233694925	0.05
0	104	5.259149397	0.05
0	104	5.290874731	0.05
0	105	5.3	0.05
0	106	5.324795776	0.05
0	106	5.3636566	0.05
0	106	5.386392719	0.05
0	107	5.4	0.05
0	108	5.424758672	0.05
0	108	5.447623164	0.05
0	108	5.488110015	0.05
0	109	5.5	0.05
0	110	5.514198479	0.05
0	110	5.542045535	0.05
0	110	5.565093431	0.05
0	110	5.590186658	0.05
0	111	5.6	0.05
0	112	5.621950703	0.05
0	112	5.645357795	0.05
0	112	5.681447996	0.05
0	113	5.7	0.05
0	114	5.709136948	0.05
0	114	5.739050268	0.05
0	114	5.798610012	0.05
0	115	5.8	0.05
0	116	5.84349144	0.05
0	117	5.9	0.05
0	118	5.90060788	0.05
0	118	5.936518544	0.05
0	118	5.976339183	0.05
0	119	6	0.05
0	120	6.011241336	0.05
0	120	6.058205168	0.05
0	121	6.1	0.05
0	122	6.104750227	0.05
0	122	6.141258145	0.05
0	122	6.164376096	0.05
0	122	6.191373018	0.05
0	123	6.2	0.05
0	124	6.226795813	0.05
0	124	6.268042432	0.05
0	125	6.3	0.05
0	126	6.315399651	0.05
0	126	6.366345984	0.05
0	127	6.4	0.05
0	128	6.409507554	0.05
0	128	6.438169281	0.05
0	128	6.471570393	0.05
0	128	6.496615393	0.05
0	129	6.5	0.05
0	130	6.528506036	0.05
0	130	6.551931618	0.05
0	130	6.578998436	0.05
0	131	6.6	0.05
0	132	6.619111132	0.05
0	132	6.649869892	0.05
0	132	6.693059529	0.05
0	133	6.7	0.05
0	134	6.733178276	0.05
0	134	6.761261628	0.05
0	135	6.8	0.05
0	136	6.801283976	0.05
0	136	6.836728251	0.05
0	137	6.9	0.05
0	138	6.905915515	0.05
0	138	6.944556377	0.05
0	138	6.996832378	0.05
0	139	7	0.05
0	140	7.042463701	0.05
0	140	7.094292515	0.05
0	141	7.1	0.05
0	142	7.146076349	0.05
0	142	7.185585987	0.05
0	143	7.2	0.05
0	144	7.221470529	0.05
0	144	7.265049494	0.05
0	145	7.3	0.05
0	146	7.301388909	0.05
0	146	7.357322882	0.05
0	147	7.4	0.05
0	148	7.409782507	0.05
0	148	7.457901892	0.05
0	148	7.484672156	0.05
0	149	7.5	0.05
0	150	7.519087926	0.05
0	150	7.544065162	0.05
0	150	7.580709916	0.05
0	151	7.6	0.05
0	152	7.625201101	0.05
0	152	7.662118179	0.05
0	153	7.7	0.05
0	154	7.705852001	0.05
0	154	7.733784646	0.05
0	154	7.787779389	0.05
0	155	7.8	0.05
0	156	7.817692349	0.05
0	156	7.848531999	0.05
0	157	7.9	0.05
0	158	7.904418254	0.05
0	158	7.953402276	0.05
0	158	7.989511706	0.05
0	159	8	0.05
0	160	8.029996368	0.05
0	160	8.074613275	0.05
0	161	8.1	0.05
0	162	8.117173155	0.05
0	162	8.172789575	0.05
0	163	8.2	0.05
0	164	8.204584031	0.05
0	164	8.240817168	0.05
0	164	8.289380093	0.05
0	165	8.3	0.05
0	166	8.341215163	0.05
0	166	8.374139862	0.05
0	167	8.4	0.05
0	168	8.403836513	0.05
0	168	8.450169133	0.05
0	169	8.5	0.05
0	170	8.500704946	0.05
0	170	8.535375747	0.05
0	170	8.581534146	0.05
0	171	8.6	0.05
0	172	8.637529866	0.05
0	173	8.7	0.05
0	174	8.703829017	0.05
0	174	8.759113331	0.05
0	175	8.8	0.05
0	176	8.81799963	0.05
0	176	8.874507323	0.05
0	177	8.9	0.05
0	178	8.935538016	0.05
0	178	8.997571351	0.05
0	179	9	0.05
0	180	9.054356914	0.05
0	180	9.097357829	0.05
0	181	9.1	0.05
0	182	9.171053687	0.05
0	183	9.2	0.05
0	184	9.233802177	0.05
0	184	9.274925294	0.05
0	185	9.3	0.05
0	186	9.315630339	0.05
0	186	9.370865638	0.05
0	187	9.4	0.05
0	188	9.412903137	0.05
0	188	9.454594901	0.05
0	188	9.495835214	0.05
0	189	9.5	0.05
0	190	9.533447454	0.05
0	190	9.589478015	0.05
0	191	9.6	0.05
0	192	9.654077278	0.05
0	192	9.696147787	0.05
0	193	9.7	0.05
0	194	9.76044981	0.05
0	195	9.8	0.05
0	196	9.831184515	0.05
0	197	9.9	0.05
0	198	9.911420902	0.05
0	198	9.979041253	0.05
0	199	10	0.05
0	200	10.045757594	0.05
0	201	10.1	0.05
0	202	10.118190302	0.05
0	202	10.167647915	0.05
0	203	10.2	0.05
0	204	10.208967987	0.05
0	204	10.24796257	0.05
0	204	10.28853757	0.05
0	205	10.3	0.05
0	206	10.325660492	0.05
0	206	10.392983712	0.05
0	207	10.4	0.05
0	208	10.466068873	0.05
0	209	10.5	0.05
0	210	10.532301812	0.05
0	210	10.598504226	0.05
0	211	10.6	0.05
0	212	10.66576264	0.05
0	213	10.7	0.05
0	214	10.717027288	0.05
0	214	10.781607919	0.05
0	215	10.8	0.05
0	216	10.849302068	0.05
0	217	10.9	0.05
0	218	10.921907697	0.05
0	218	10.990494764	0.05
0	219	11	0.05
0	220	11.067223873	0.05
0	221	11.1	0.05
0	222	11.149612959	0.05
0	223	11.2	0.05
0	224	11.242617228	0.05
0	225	11.3	0.05
0	226	11.327501544	0.05
0	227	11.4	0.05
0	228	11.406907486	0.05
0	228	11.466687272	0.05
0	229	11.5	0.05
0	230	11.514057544	0.05
0	230	11.574383948	0.05
0	231	11.6	0.05
0	232	11.62207652	0.05
0	232	11.699571981	0.05
0	233	11.7	0.05
0	234	11.762570769	0.05
0	235	11.8	0.05
0	236	11.822114308	0.05
0	236	11.886088603	0.05
0	237	11.9	0.05
0	238	11.954579881	0.05
0	239	12	0.05
0	240	12.0332161	0.05
0	241	12.1	0.05
0	242	12.11291892	0.05
0	243	12.2	0.05
0	244	12.246387547	0.05
0	244	12.291687564	0.05
0	245	12.3	0.05
0	246	12.342143487	0.05
0	247	12.4	0.05
0	248	12.407907322	0.05
0	248	12.453397423	0.05
0	249	12.5	0.05
0	250	12.502685307	0.05
0	250	12.535946434	0.05
0	250	12.589111143	0.05
0	251	12.6	0.05
0	252	12.623341884	0.05
0	252	12.665035002	0.05
0	253	12.7	0.05
0	254	12.734473438	0.05
0	254	12.799437561	0.05
0	255	12.8	0.05
0	256	12.880551348	0.05
0	257	12.9	0.05
0	258	12.955844197	0.05
0	259	13	0.05
0	260	13.024293258	0.05
0	260	13.070430102	0.05
0	261	13.1	0.05
0	262	13.130639169	0.05
0	262	13.171820599	0.05
0	263	13.2	0.05
0	264	13.222432225	0.05
0	264	13.284326199	0.05
0	265	13.3	0.05
0	266	13.350323668	0.05
0	267	13.4	0.05
0	268	13.407699727	0.05
0	268	13.459359668	0.05
0	269	13.5	0.05
0	270	13.512614293	0.05
0	270	13.558632433	0.05
0	271	13.6	0.05
0	272	13.602000375	0.05
0	272	13.673900473	0.05
0	273	13.7	0.05
0	274	13.734013185	0.05
0	274	13.7805054	0.05
0	275	13.8	0.05
0	276	13.823965165	0.05
0	276	13.869851144	0.05
0	277	13.9	0.05
0	278	13.924060393	0.05
0	278	13.99593843	0.05
0	279	14	0.05
0	280	14.043151119	0.05
0	280	14.086193434	0.05
0	281	14.1	0.05
0	282	14.127459827	0.05
0	282	14.169904469	0.05
0	283	14.2	0.05
0	284	14.209716959	0.05
0	284	14.240683525	0.05
0	284	14.288464348	0.05
0	285	14.3	0.05
0	286	14.33846568	0.05
0	286	14.382223229	0.05
0	287	14.4	0.05
0	288	14.425270951	0.05
0	288	14.455846082	0.05
0	288	14.485730026	0.05
0	289	14.5	0.05
0	290	14.527807531	0.05
0	290	14.562856272	0.05
0	290	14.592659048	0.05
0	291	14.6	0.05
0	292	14.655446512	0.05
0	293	14.7	0.05
0	294	14.710446461	0.05
0	294	14.782331237	0.05
0	295	14.8	0.05
0	296	14.850386772	0.05
0	296	14.889042227	0.05
0	297	14.9	0.05
0	298	14.94585651	0.05
0	298	14.993788876	0.05
0	299	15	0.05
0	300	15.066933313	0.05
0	301	15.1	0.05
0	302	15.13691547	0.05
0	302	15.193746163	0.05
0	303	15.2	0.05
0	304	15.266265164	0.05
0	305	15.3	0.05
0	306	15.343828994	0.05
0	307	15.4	0.05
0	308	15.410997513	0.05
0	308	15.45264312	0.05
0	308	15.498072557	0.05
0	309	15.5	0.05
0	310	15.542685865	0.05
0	310	15.588372739	0.05
0	311	15.6	0.05
0	312	15.662063092	0.05
0	313	15.7	0.05
0	314	15.716563777	0.05
0	314	15.762130892	0.05
0	315	15.8	0.05
0	316	15.82522291	0.05
0	316	15.885911615	0.05
0	317	15.9	0.05
0	318	15.93112571	0.05
0	319	16	0.05
0	320	16.009590065	0.05
0	320	16.078011836	0.05
0	321	16.1	0.05
0	322	16.153321848	0.05
0	323	16.2	0.05
0	324	16.225776532	0.05
0	324	16.294359156	0.05
0	325	16.3	0.05
0	326	16.367851091	0.05
0	327	16.4	0.05
0	328	16.435655525	0.05
0	328	16.482073358	0.05
0	329	16.5	0.05
0	330	16.560672037	0.05
0	331	16.6	0.05
0	332	16.628925414	0.05
0	332	16.696204184	0.05
0	333	16.7	0.05
0	334	16.760105091	0.05
0	335	16.8	0.05
0	336	16.807040146	0.05
0	336	16.8684204	0.05
0	337	16.9	0.05
0	338	16.914142379	0.05
0	338	16.980349734	0.05
0	339	17	0.05
0	340	17.032760266	0.05
0	340	17.088225649	0.05
0	341	17.1	0.05
0	342	17.134624988	0.05
0	342	17.188170186	0.05
0	343	17.2	0.05
0	344	17.222256534	0.05
0	344	17.253307966	0.05
0	344	17.286499815	0.05
0	345	17.3	0.05
0	346	17.321145448	0.05
0	346	17.37354673	0.05
0	347	17.4	0.05
0	348	17.435160402	0.05
0	348	17.475896012	0.05
0	348	17.499306585	0.05
0	349	17.5	0.05
0	350	17.543018454	0.05
0	350	17.575163726	0.05
0	351	17.6	0.05
0	352	17.617340727	0.05
0	352	17.647840019	0.05
0	352	17.679512338	0.05
0	353	17.7	0.05
0	354	17.703835752	0.05
0	354	17.76169296	0.05
0	355	17.8	0.05
0	356	17.815802231	0.05
0	356	17.864993041	0.05
0	357	17.9	0.05
0	358	17.909403912	0.05
0	358	17.957664273	0.05
0	358	17.988585016	0.05
0	359	18	0.05
0	360	18.0421655	0.05
0	360	18.084173997	0.05
0	361	18.1	0.05
0	362	18.138811681	0.05
0	362	18.177610124	0.05
0	363	18.2	0.05
0	364	18.233782793	0.05
0	364	18.266107284	0.05
0	365	18.3	0.05
0	366	18.322083082	0.05
0	366	18.352335836	0.05
0	366	18.396698207	0.05
0	367	18.4	0.05
0	368	18.443368818	0.05
0	368	18.482205857	0.05
0	369	18.5	0.05
0	370	18.524383539	0.05
0	370	18.564161407	0.05
0	371	18.6	0.05
0	372	18.614203682	0.05
0	372	18.665465842	0.05
0	373	18.7	0.05
0	374	18.707338733	0.05
0	374	18.754039219	0.05
0	374	18.784386625	0.05
0	375	18.8	0.05
0	376	18.813876514	0.05
0	376	18.848807841	0.05
0	376	18.871484085	0.05
0	377	18.9	0.05
0	378	18.907147298	0.05
0	378	18.930846968	0.05
0	378	18.970574171	0.05
0	379	19	0.05
0	380	19.024588403	0.05
0	380	19.050537839	0.05
0	381	19.1	0.05
0	382	19.101575963	0.05
0	382	19.146210533	0.05
0	383	19.2	0.05
0	384	19.234296583	0.05
0	385	19.3	0.05
0	386	19.304045857	0.05
0	386	19.349239879	0.05
0	386	19.390351872	0.05
0	387	19.4	0.05
0	388	19.424071173	0.05
0	388	19.461649705	0.05
0	389	19.5	0.05
0	390	19.508366659	0.05
0	390	19.547234026	0.05
0	390	19.571550235	0.05
0	391	19.6	0.05
0	392	19.609997188	0.05
0	392	19.641015527	0.05
0	392	19.673153304	0.05
0	392	19.69514938	0.05
0	393	19.7	0.05
0	394	19.734798649	0.05
0	394	19.782237659	0.05
0	395	19.8	0.05
0	396	19.857971384	0.05
0	397	19.9	0.05
0	398	19.936008871	0.05
0	398	19.995163345	0.05
0	399	20	0.05
0	400	20.061759643	0.05
0	401	20.1	0.05
0	402	20.128492444	0.05
0	402	20.177879103	0.05
0	403	20.2	0.05
0	404	20.236580427	0.05
0	404	20.295466969	0.05
0	405	20.3	0.05
0	406	20.336746835	0.05
0	406	20.371879289	0.05
0	407	20.4	0.05
0	408	20.404613174	0.05
0	408	20.433817369	0.05
0	409	20.5	0.05
0	410	20.505571612	0.05
0	410	20.574987547	0.05
0	411	20.6	0.05
0	412	20.638356643	0.05
0	413	20.7	0.05
0	414	20.73524601	0.05
0	415	20.8	0.05
0	416	20.809301914	0.05
0	416	20.885346108	0.05
0	417	20.9	0.05
0	418	20.954496853	0.05
0	419	21	0.05
0	420	21.022491021	0.05
0	420	21.082200748	0.05
0	421	21.1	0.05
0	422	21.145894602	0.05
0	423	21.2	0.05
0	424	21.214369548	0.05
0	424	21.278509904	0.05
0	425	21.3	0.05
0	426	21.353181677	0.05
0	427	21.4	0.05
0	428	21.414470991	0.05
0	428	21.460539189	0.05
0	429	21.5	0.05
0	430	21.509551031	0.05
0	430	21.561571153	0.05
0	431	21.6	0.05
0	432	21.607480724	0.05
0	432	21.661035133	0.05
0	433	21.7	0.05
0	434	21.71025814	0.05
0	434	21.756342616	0.05
0	435	21.8	0.05
0	436	21.800997752	0.05
0	436	21.827359287	0.05
0	436	21.851219853	0.05
0	437	21.9	0.05
0	438	21.913340354	0.05
0	438	21.970057126	0.05
0	439	22	0.05
0	440	22.018801662	0.05
0	440	22.069484301	0.05
0	441	22.1	0.05
0	442	22.12127877	0.05
0	442	22.162692378	0.05
0	443	22.2	0.05
0	444	22.212571205	0.05
0	444	22.246993292	0.05
0	444	22.298889751	0.05
0	445	22.3	0.05
0	446	22.359246901	0.05
0	447	22.4	0.05
0	448	22.417591982	0.05
0	448	22.474443025	0.05
0	449	22.5	0.05
0	450	22.524706803	0.05
0	450	22.581335278	0.05
0	451	22.6	0.05
0	452	22.638011998	0.05
0	453	22.7	0.05
0	454	22.704182718	0.05
0	454	22.781273179	0.05
0	455	22.8	0.05
0	456	22.852949603	0.05
0	457	22.9	0.05
0	458	22.90159238	0.05
0	458	22.965275927	0.05
0	459	23	0.05
0	460	23.004184519	0.05
0	460	23.051805914	0.05
0	461	23.08057828677	0.05
0	462	23.1	0.05
0	463	23.105738652	0.05
0	463	23.153531436	0.05
0	464	23.2	0.05
0	465	23.200685591	0.05
0	465	23.240985752	0.05
0	465	23.265446293	0.05
0	465	23.297165603	0.05
0	466	23.3	0.05
0	467	23.328776346	0.05
0	467	23.376460734	0.045
0	467	23.376460734	0.045
0	468	23.4	0.045
0	469	23.424717617	0.045
0	469	23.463156275	0.045
0	470	23.5	0.045
0	471	23.513593764	0.045
0	471	23.559479836	0.045
0	472	23.6	0.045
0	473	23.604079624	0.045
0	473	23.642675152	0.045
0	474	23.7	0.045
0	475	23.704280844	0.045
0	475	23.770820538	0.045
0	476	23.8	0.045
0	477	23.825251161	0.045
0	477	23.870323833	0.045
0	478	23.9	0.045
0	479	23.925075083	0.0405
0	479	23.925075083	0.0405
0	479	23.9774955	0.0405
0	480	24	0.0405
0	481	24.023905552	0.0405
0	481	24.054841512	0.0405
0	481	24.099170236	0.0405
0	482	24.1	0.0405
0	483	24.137678572	0.0405
0	483	24.185496352	0.0405
0	484	24.2	0.0405
0	485	24.239128615	0.0405
0	485	24.285035544	0.0405
0	486	24.3	0.0405
0	487	24.318477946	0.0405
0	487	24.365143678	0.0405
0	488	24.4	0.0405
0	489	24.404932692	0.0405
0	489	24.433727873	0.03645
0	489	24.433727873	0.03645
0	489	24.470559066	0.03645
0	489	24.493678108	0.03645
0	490	24.5	0.03645
0	491	24.533617272	0.03645
0	491	24.566985964	0.03645
0	492	24.6	0.03645
0	493	24.61272874	0.03645
0	493	24.661060644	0.03645
0	493	24.698266132	0.03645
0	494	24.7	0.03645
0	495	24.726687947	0.03645
0	495	24.754497514	0.03645
0	495	24.785108441	0.03645
0	496	24.8	0.03645
0	497	24.80729782	0.03645
0	497	24.850623154	0.03645
0	497	24.882767477	0.032805
0	497	24.882767477	0.032805
0	498	24.9	0.032805
0	499	24.922039167	0.032805
0	499	24.973051494	0.032805
0	500	25	0.032805
0	501	25.027314942	0.032805
0	501	25.081040856	0.032805
0	502	25.1	0.032805
0	503	25.128728258	0.032805
0	503	25.165040727	0.032805
0	504	25.2	0.032805
0	505	25.205762522	0.032805
0	505	25.244227563	0.032805
0	505	25.292567537	0.032805
0	506	25.3	0.032805
0	507	25.349699248	0.032805
0	508	25.4	0.032805
0	509	25.404383641	0.0295245
0	509	25.404383641	0.0295245
0	509	25.450594835	0.0295245
0	510	25.5	0.0295245
0	511	25.505077778	0.0295245
0	511	25.536546456	0.0295245
0	511	25.564886092	0.0295245
0	512	25.6	0.0295245
0	513	25.608362834	0.0295245
0	513	25.648911753	0.0295245
0	513	25.696792152	0.0295245
0	514	25.7	0.0295245
0	515	25.727449391	0.0295245
0	515	25.772370882	0.0295245
0	516	25.8	0.0295245
0	517	25.809343197	0.0295245
0	517	25.849752236	0.0295245
0	517	25.891257851	0.0295245
0	518	25.9	0.02657205
0	518	25.9	0.02657205
0	519	25.94077398	0.02657205
0	519	25.963979929	0.02657205
0	520	26	0.02657205
0	521	26.005195093	0.02657205
0	521	26.055040382	0.02657205
0	521	26.083182302	0.02657205
0	522	26.1	0.02657205
0	523	26.127374664	0.02657205
0	523	26.157337809	0.02657205
0	523	26.193641764	0.02657205
0	524	26.2	0.02657205
0	525	26.21792564	0.02657205
0	525	26.252696984	0.02657205
0	525	26.281660062	0.02657205
0	526	26.3	0.02657205
0	527	26.314645418	0.02657205
0	527	26.350675915	0.023914845
0	527	26.350675915	0.023914845
0	528	26.4	0.023914845
0	529	26.401382107	0.023914845
0	529	26.459436344	0.023914845
0	530	26.5	0.023914845
0	531	26.505588928	0.023914845
0	531	26.557071089	0.023914845
0	532	26.6	0.023914845
0	533	26.609075751	0.023914845
0	533	26.638172197	0.023914845
0	533	26.667700205	0.023914845
0	534	26.7	0.023914845
0	535	26.703500572	0.023914845
0	535	26.729686805	0.023914845
0	535	26.758726097	0.023914845
0	535	26.789762796	0.023914845
0	536	26.8	0.023914845
0	537	26.818965967	0.0215233605
0	537	26.818965967	0.0215233605
0	537	26.859630279	0.0215233605
0	537	26.882678127	0.0215233605
0	538	26.9	0.0215233605
0	539	26.926285417	0.0215233605
0	539	26.961586511	0.0215233605
0	539	26.993682741	0.0215233605
0	540	27	0.0215233605
0	541	27.016128054	0.0215233605
0	541	27.055284543	0.0215233605
0	541	27.099178205	0.0215233605
0	542	27.1	0.0215233605
0	543	27.146742384	0.0215233605
0	543	27.173972536	0.0215233605
0	544	27.2	0.0215233605
0	545	27.217180889	0.0215233605
0	545	27.254653562	0.0215233605
0	546	27.3	0.01937102445
0	546	27.3	0.01937102445
0	547	27.306313955	0.01937102445
0	547	27.367437163	0.01937102445
0	548	27.4	0.01937102445
0	549	27.405615504	0.01937102445
0	549	27.454713901	0.01937102445
0	549	27.495305739	0.01937102445
0	550	27.5	0.01937102445
0	551	27.520070682	0.01937102445
0	551	27.547813299	0.01937102445
0	551	27.583300405	0.01937102445
0	552	27.6	0.01937102445
0	553	27.625597687	0.01937102445
0	553	27.6771032	0.01937102445
0	554	27.7	0.01937102445
0	555	27.710617614	0.01937102445
0	555	27.756243237	0.01937102445
0	555	27.791291771	0.017433922005
0	555	27.791291771	0.017433922005
0	556	27.8	0.017433922005
0	557	27.821899732	0.017433922005
0	557	27.858288848	0.017433922005
0	557	27.896717455	0.017433922005
0	558	27.9	0.017433922005
0	559	27.945562858	0.017433922005
0	559	27.990508618	0.017433922005
0	560	28	0.017433922005
0	561	28.045484799	0.017433922005
0	561	28.078697629	0.017433922005
0	562	28.1	0.017433922005
0	563	28.107350693	0.017433922005
0	563	28.129601464	0.017433922005
0	563	28.160539416	0.017433922005
0	563	28.190516956	0.017433922005
0	564	28.2	0.017433922005
0	565	28.232271959	0.0156905298045
0	565	28.232271959	0.0156905298045
0	565	28.256505433	0.0156905298045
0	566	28.3	0.0156905298045
0	567	28.302478332	0.0156905298045
0	567	28.353381307	0.0156905298045
0	567	28.396970705	0.0156905298045
0	568	28.4	0.0156905298045
0	569	28.429541289	0.0156905298045
0	569	28.466440338	0.0156905298045
0	569	28.488047728	0.0156905298045
0	570	28.5	0.0156905298045
0	571	28.517432715	0.0156905298045
0	571	28.547664889	0.0156905298045
0	571	28.575540748	0.0156905298045
0	572	28.6	0.0156905298045
0	573	28.616987672	0.0156905298045
0	573	28.660120048	0.0156905298045
0	574	28.7	0.01412147682405
0	574	28.7	0.01412147682405
0	575	28.70861036	0.01412147682405
0	575	28.757719626	0.01412147682405
0	575	28.785153605	0.01412147682405
0	576	28.8	0.01412147682405
0	577	28.822118481	0.01412147682405
0	577	28.844402694	0.01412147682405
0	577	28.866447379	0.01412147682405
0	578	28.9	0.01412147682405
0	579	28.912996383	0.01412147682405
0	579	28.94791122	0.01412147682405
0	579	28.974962494	0.01412147682405
0	580	29	0.01412147682405
0	581	29.007787218	0.01412147682405
0	581	29.030451698	0.01412147682405
0	581	29.057431947	0.01412147682405
0	581	29.085752484	0.01412147682405
0	582	29.1	0.012709329141645
0	582	29.1	0.012709329141645
0	583	29.107494639	0.012709329141645
0	583	29.151137336	0.012709329141645
0	583	29.197375503	0.012709329141645
0	584	29.2	0.012709329141645
0	585	29.234629107	0.012709329141645
0	585	29.272932124	0.012709329141645
0	586	29.3	0.012709329141645
0	587	29.324934748	0.012709329141645
0	587	29.360259367	0.012709329141645
0	588	29.4	0.012709329141645
0	589	29.401557277	0.012709329141645
0	589	29.449590033	0.012709329141645
0	590	29.5	0.012709329141645
0	591	29.503966207	0.012709329141645
0	591	29.557331877	0.012709329141645
0	591	29.591496922	0.012709329141645
0	592	29.6	0.011438396227481
0	592	29.6	0.011438396227481
0	593	29.614131982	0.011438396227481
0	593	29.645614496	0.011438396227481
0	593	29.674534237	0.011438396227481
0	594	29.7	0.011438396227481
0	595	29.723702147	0.011438396227481
0	595	29.777187576	0.011438396227481
0	596	29.8	0.011438396227481
0	597	29.8196936	0.011438396227481
0	597	29.89469432	0.011438396227481
0	598	29.9	0.011438396227481
0	599	29.966256321	0.011438396227481
0	600	30	0.011438396227481
0	601	30.041350756	0.011438396227481
0	601	30.099919406	0.011438396227481
0	602	30.1	0.011438396227481
0	603	30.141722044	0.011438396227481
0	604	30.2	0.010294556604732
0	604	30.2	0.010294556604732
0	605	30.20388601	0.010294556604732
0	605	30.244833811	0.010294556604732
0	605	30.296730992	0.010294556604732
0	606	30.3	0.010294556604732
0	607	30.330753127	0.010294556604732
0	607	30.37109974	0.010294556604732
0	608	30.4	0.010294556604732
0	609	30.420657866	0.010294556604732
0	609	30.474404476	0.010294556604732
0	610	30.5	0.010294556604732
0	611	30.514178609	0.010294556604732
0	611	30.567650606	0.010294556604732
0	612	30.6	0.010294556604732
0	613	30.606110266	0.010294556604732
0	613	30.658039602	0.010294556604732
0	614	30.7	0.010294556604732
0	615	30.713596398	0.0092651009442592
0	615	30.713596398	0.0092651009442592
0	615	30.76910753	0.0092651009442592
0	616	30.8	0.0092651009442592
0	617	30.811878244	0.0092651009442592
0	617	30.844316199	0.0092651009442592
0	617	30.887467303	0.0092651009442592
0	618	30.9	0.0092651009442592
0	619	30.925665504	0.0092651009442592
0	619	30.948262016	0.0092651009442592
0	619	30.99401114	0.0092651009442592
0	620	31	0.0092651009442592
0	621	31.041324769	0.0092651009442592
0	621	31.081159107	0.0092651009442592
0	622	31.1	0.0092651009442592
0	623	31.129704642	0.0092651009442592
0	623	31.171559855	0.0092651009442592
0	624	31.2	0.0092651009442592
0	625	31.200919771	0.0083385908498333
0	625	31.200919771	0.0083385908498333
0	625	31.238227981	0.0083385908498333
0	625	31.291829683	0.0083385908498333
0	626	31.3	0.0083385908498333
0	627	31.333620658	0.0083385908498333
0	627	31.374993296	0.0083385908498333
0	628	31.4	0.0083385908498333
0	629	31.415585786	0.0083385908498333
0	629	31.476772366	0.0083385908498333
0	630	31.5	0.0083385908498333
0	631	31.541658281	0.0083385908498333
0	631	31.572625681	0.0083385908498333
0	632	31.6	0.0083385908498333
0	633	31.617162993	0.0083385908498333
0	633	31.655350067	0.0083385908498333
0	634	31.7	0.0083385908498333
0	635	31.7118278	0.0083385908498333
0	635	31.746956462	0.00750473176485
0	635	31.746956462	0.00750473176485
0	636	31.8	0.00750473176485
0	637	31.81312814	0.00750473176485
0	637	31.855015371	0.00750473176485
0	638	31.9	0.00750473176485
0	639	31.921598184	0.00750473176485
0	639	31.965986967	0.00750473176485
0	640	32	0.00750473176485
0	641	32.011737216	0.00750473176485
0	641	32.045161295	0.00750473176485
0	641	32.074465633	0.00750473176485
0	642	32.1	0.00750473176485
0	643	32.105755099	0.00750473176485
0	643	32.147109838	0.00750473176485
0	643	32.188971876	0.00750473176485
0	644	32.2	0.00750473176485
0	645	32.237666194	0.00750473176485
0	645	32.283625384	0.006754258588365
0	645	32.283625384	0.006754258588365
0	646	32.3	0.006754258588365
0	647	32.321171093	0.006754258588365
0	647	32.365486967	0.006754258588365
0	647	32.395417844	0.006754258588365
0	648	32.4	0.006754258588365
0	649	32.447385655	0.006754258588365
0	649	32.477729787	0.006754258588365
0	650	32.5	0.006754258588365
0	651	32.52664061	0.006754258588365
0	651	32.565649575	0.006754258588365
0	652	32.6	0.006754258588365
0	653	32.615323983	0.006754258588365
0	653	32.653591873	0.006754258588365
0	653	32.697013674	0.006754258588365
0	654	32.7	0.006754258588365
0	655	32.73325175	0.006754258588365
0	655	32.79173195	0.0060788327295285
0	655	32.79173195	0.0060788327295285
0	656	32.8	0.0060788327295285
0	657	32.831660692	0.0060788327295285
0	657	32.884583823	0.0060788327295285
0	658	32.9	0.0060788327295285
0	659	32.925455605	0.0060788327295285
0	659	32.97453717	0.0060788327295285
0	660	33	0.0060788327295285
0	661	33.025414769	0.0060788327295285
0	662	33.1	0.0060788327295285
0	663	33.101052921	0.0060788327295285
0	663	33.150153463	0.0060788327295285
0	663	33.195237406	0.0060788327295285
0	664	33.2	0.0060788327295285
0	665	33.232799877	0.0060788327295285
0	665	33.268668987	0.0060788327295285
0	666	33.3	0.0060788327295285
0	667	33.302085253	0.0054709494565756
0	667	33.302085253	0.0054709494565756
0	667	33.347030032	0.0054709494565756
0	668	33.4	0.0054709494565756
0	669	33.402666171	0.0054709494565756
0	669	33.439269596	0.0054709494565756
0	669	33.473649707	0.0054709494565756
0	670	33.5	0.0054709494565756
0	671	33.533382856	0.0054709494565756
0	671	33.581616672	0.0054709494565756
0	672	33.6	0.0054709494565756
0	673	33.612993673	0.0054709494565756
0	673	33.648499501	0.0054709494565756
0	673	33.670193292	0.0054709494565756
0	673	33.698666031	0.0054709494565756
0	674	33.7	0.0054709494565756
0	675	33.732635903	0.0054709494565756
0	675	33.78096967	0.0054709494565756
0	676	33.8	0.0049238545109181
0	676	33.8	0.0049238545109181
0	677	33.835819638	0.0049238545109181
0	677	33.883351	0.0049238545109181
0	678	33.9	0.0049238545109181
0	679	33.934911277	0.0049238545109181
0	679	33.99453183	0.0049238545109181
0	680	34	0.0049238545109181
0	681	34.069176372	0.0049238545109181
0	682	34.1	0.0049238545109181
0	683	34.130146596	0.0049238545109181
0	683	34.180885909	0.0049238545109181
0	684	34.2	0.0049238545109181
0	685	34.251777117	0.0049238545109181
0	686	34.3	0.0049238545109181
0	687	34.314236188	0.0049238545109181
0	687	34.3798057	0.0049238545109181
0	688	34.4	0.0049238545109181
0	689	34.453506138	0.0044314690598263
0	689	34.453506138	0.0044314690598263
0	690	34.5	0.0044314690598263
0	691	34.52661801	0.0044314690598263
0	691	34.599980707	0.0044314690598263
0	692	34.6	0.0044314690598263
0	693	34.67074223	0.0044314690598263
0	694	34.7	0.0044314690598263
0	695	34.735400849	0.0044314690598263
0	695	34.787893593	0.0044314690598263
0	696	34.8	0.0044314690598263
0	697	34.817742183	0.0044314690598263
0	697	34.86191247	0.0044314690598263
0	697	34.894739846	0.0044314690598263
0	698	34.9	0.0044314690598263
0	699	34.947105327	0.0044314690598263
0	699	34.981271896	0.0044314690598263
0	700	35	0.0044314690598263
0	701	35.059758222	0.0039883221538436
0	701	35.059758222	0.0039883221538436
0	702	35.1	0.0039883221538436
0	703	35.123017467	0.0039883221538436
0	703	35.166551181	0.0039883221538436
0	704	35.2	0.0039883221538436
0	705	35.230111991	0.0039883221538436
0	705	35.284822411	0.0039883221538436
0	706	35.3	0.0039883221538436
0	707	35.356133597	0.0039883221538436
0	707	35.388545939	0.0039883221538436
0	708	35.4	0.0039883221538436
0	709	35.433362607	0.0039883221538436
0	709	35.489662991	0.0039883221538436
0	710	35.5	0.0039883221538436
0	711	35.535902539	0.0039883221538436
0	711	35.567482609	0.0039883221538436
0	712	35.6	0.0039883221538436
0	713	35.603777285	0.0035894899384593
0	713	35.603777285	0.0035894899384593
0	713	35.64717221	0.0035894899384593
0	714	35.7	0.0035894899384593
0	715	35.709755442	0.0035894899384593
0	715	35.741884952	0.0035894899384593
0	715	35.780637457	0.0035894899384593
0	716	35.8	0.0035894899384593
0	717	35.812266552	0.0035894899384593
0	717	35.838327336	0.0035894899384593
0	717	35.898016842	0.0035894899384593
0	718	35.9	0.0035894899384593
0	719	35.929557286	0.0035894899384593
0	719	35.973863595	0.0035894899384593
0	720	36	0.0035894899384593
0	721	36.01508602	0.0035894899384593
0	721	36.060889362	0.0035894899384593
0	721	36.092947954	0.0035894899384593
0	722	36.1	0.0032305409446133
0	722	36.1	0.0032305409446133
0	723	36.129324201	0.0032305409446133
0	723	36.168944766	0.0032305409446133
0	724	36.2	0.0032305409446133
0	725	36.220738217	0.0032305409446133
0	725	36.263357644	0.0032305409446133
0	726	36.3	0.0032305409446133
0	727	36.31879817	0.0032305409446133
0	727	36.360766149	0.0032305409446133
0	728	36.4	0.0032305409446133
0	729	36.432764423	0.0032305409446133
0	729	36.487915502	0.0032305409446133
0	730	36.5	0.0032305409446133
0	731	36.553253183	0.0032305409446133
0	731	36.584917211	0.0032305409446133
0	732	36.6	0.0032305409446133
0	733	36.629225829	0.0032305409446133
0	733	36.684214901	0.002907486850152
0	733	36.684214901	0.002907486850152
0	734	36.7	0.002907486850152
0	735	36.733368063	0.002907486850152
0	735	36.787095941	0.002907486850152
0	736	36.8	0.002907486850152
0	737	36.845202614	0.002907486850152
0	737	36.887137094	0.002907486850152
0	738	36.9	0.002907486850152
0	739	36.927008628	0.002907486850152
0	739	36.957158447	0.002907486850152
0	739	36.99048104	0.002907486850152
0	740	37	0.002907486850152
0	741	37.024769624	0.002907486850152
0	741	37.06169037	0.002907486850152
0	742	37.1	0.002907486850152
0	743	37.108840433	0.002907486850152
0	743	37.158927672	0.002907486850152
0	743	37.197016863	0.0026167381651368
0	743	37.197016863	0.0026167381651368
0	744	37.2	0.0026167381651368
0	745	37.242628561	0.0026167381651368
0	745	37.265288134	0.0026167381651368
0	746	37.3	0.0026167381651368
0	747	37.327255655	0.0026167381651368
0	747	37.364411462	0.0026167381651368
0	747	37.385942227	0.0026167381651368
0	748	37.4	0.0026167381651368
0	749	37.421091655	0.0026167381651368
0	749	37.45067282	0.0026167381651368
0	750	37.5	0.0026167381651368
0	751	37.502039218	0.0026167381651368
0	751	37.553335891	0.0026167381651368
0	751	37.596656335	0.0026167381651368
0	752	37.6	0.0026167381651368
0	753	37.637402791	0.0026167381651368
0	753	37.690687539	0.0023550643486231
0	753	37.690687539	0.0023550643486231
0	754	37.7	0.0023550643486231
0	755	37.737693074	0.0023550643486231
0	755	37.790637263	0.0023550643486231
0	756	37.8	0.0023550643486231
0	757	37.830230618	0.0023550643486231
0	757	37.853208047	0.0023550643486231
0	758	37.9	0.0023550643486231
0	759	37.917757844	0.0023550643486231
0	759	37.962492523	0.0023550643486231
0	760	38	0.0023550643486231
0	761	38.010886389	0.0023550643486231
0	761	38.040305251	0.0023550643486231
0	761	38.0722188	0.0023550643486231
0	762	38.1	0.0023550643486231
0	763	38.125516996	0.0023550643486231
0	763	38.175921481	0.0023550643486231
0	764	38.2	0.0021195579137608
0	764	38.2	0.0021195579137608
0	765	38.216387098	0.0021195579137608
0	765	38.275376914	0.0021195579137608
0	766	38.3	0.0021195579137608
0	767	38.31747034	0.0021195579137608
0	767	38.373173035	0.0021195579137608
0	768	38.4	0.0021195579137608
0	769	38.410469352	0.0021195579137608
0	769	38.439235466	0.0021195579137608
0	769	38.467904374	0.0021195579137608
0	769	38.490251689	0.0021195579137608
0	770	38.5	0.0021195579137608
0	771	38.531651825	0.0021195579137608
0	771	38.553678183	0.0021195579137608
0	771	38.586004534	0.0021195579137608
0	772	38.6	0.0021195579137608
0	773	38.637480378	0.0021195579137608
0	773	38.671101869	0.0019076021223847
0	773	38.671101869	0.0019076021223847
0	774	38.7	0.0019076021223847
0	775	38.725093654	0.0019076021223847
0	775	38.762620401	0.0019076021223847
0	776	38.8	0.0019076021223847
0	777	38.808275959	0.0019076021223847
0	777	38.832115699	0.0019076021223847
0	777	38.874462938	0.0019076021223847
0	778	38.9	0.0019076021223847
0	779	38.924013081	0.0019076021223847
0	779	38.951546584	0.0019076021223847
0	780	39	0.0019076021223847
0	781	39.009365364	0.0019076021223847
0	781	39.060214774	0.0019076021223847
0	782	39.1	0.0019076021223847
0	783	39.105108016	0.0019076021223847
0	783	39.150421801	0.0019076021223847
0	784	39.2	0.0017168419101463
0	784	39.2	0.0017168419101463
0	785	39.205108072	0.0017168419101463
0	785	39.249469061	0.0017168419101463
0	786	39.3	0.0017168419101463
0	787	39.301846054	0.0017168419101463
0	787	39.360123336	0.0017168419101463
0	787	39.395877994	0.0017168419101463
0	788	39.4	0.0017168419101463
0	789	39.432504242	0.0017168419101463
0	789	39.464369351	0.0017168419101463
0	790	39.5	0.0017168419101463
0	791	39.52093279	0.0017168419101463
0	791	39.570023085	0.0017168419101463
0	792	39.6	0.0017168419101463
0	793	39.612928002	0.0017168419101463
0	793	39.647440062	0.0017168419101463
0	793	39.677510458	0.0017168419101463
0	794	39.7	0.0015451577191316
0	794	39.7	0.0015451577191316
0	795	39.724451658	0.0015451577191316
0	795	39.76912569	0.0015451577191316
0	796	39.8	0.0015451577191316
0	797	39.814664221	0.0015451577191316
0	797	39.851839998	0.0015451577191316
0	797	39.893507316	0.0015451577191316
0	798	39.9	0.0015451577191316
0	799	39.967701997	0.0015451577191316
0	800	40	0.0015451577191316
0	801	40.012560505	0.0015451577191316
0	801	40.06556699	0.0015451577191316
0	802	40.1	0.0015451577191316
0	803	40.104959819	0.0015451577191316
0	803	40.140651913	0.0015451577191316
0	803	40.189487936	0.0015451577191316
0	804	40.2	0.0015451577191316
0	805	40.226126165	0.0013906419472185
0	805	40.226126165	0.0013906419472185
0	805	40.273451125	0.0013906419472185
0	806	40.3	0.0013906419472185
0	807	40.314907508	0.0013906419472185
0	807	40.365254381	0.0013906419472185
0	808	40.4	0.0013906419472185
0	809	40.424601376	0.0013906419472185
0	810	40.5	0.0013906419472185
0	812	40.6	0.0013906419472185
0	813	40.610899123	0.0013906419472185
0	814	40.7	0.0013906419472185
0	815	40.780725551	0.0013906419472185
0	816	40.8	0.0013906419472185
0	818	40.870266309	0.0013906419472185
0	819	40.9	0.0013906419472185
0	820	40.922177271	0.0013906419472185
0	820	40.973694045	0.0013906419472185
0	821	41	0.0013906419472185
0	822	41.030740134	0.0013906419472185
0	822	41.076633759	0.0013906419472185
0	823	41.1	0.0013906419472185
0	824	41.121358229	0.0013906419472185
0	824	41.191107998	0.0013906419472185
0	825	41.2	0.0013906419472185
0	826	41.268279255	0.0013906419472185
0	827	41.3	0.0013906419472185
0	828	41.349667455	0.0013906419472185
0	829	41.4	0.0013906419472185
0	830	41.42285567	0.0013906419472185
0	830	41.484168804	0.0013906419472185
0	831	41.5	0.0013906419472185
0	832	41.515269727	0.0013906419472185
0	832	41.579751333	0.0013906419472185
0	833	41.6	0.0013906419472185
0	834	41.621354911	0.0013906419472185
0	834	41.676404251	0.0013906419472185
0	835	41.7	0.0013906419472185
0	836	41.742048046	0.0013906419472185
0	837	41.8	0.0013906419472185
0	838	41.813172922	0.0013906419472185
0	838	41.869570512	0.0013906419472185
0	839	41.9	0.0013906419472185
0	840	41.934809882	0.0013906419472185
0	840	41.986256181	0.0013906419472185
0	841	42	0.0013906419472185
0	842	42.072258012	0.0013906419472185
0	843	42.1	0.0013906419472185
0	844	42.12288143	0.0013906419472185
0	844	42.164689322	0.0013906419472185
0	845	42.2	0.0013906419472185
0	846	42.203372315	0.0013906419472185
0	846	42.240802215	0.0013906419472185
0	846	42.280091487	0.0013906419472185
0	847	42.3	0.0013906419472185
0	848	42.304561576	0.0013906419472185
0	848	42.352799514	0.0013906419472185
0	848	42.391739957	0.0013906419472185
0	849	42.4	0.0013906419472185
0	850	42.422761115	0.0013906419472185
0	850	42.469595986	0.0013906419472185
0	851	42.5	0.0013906419472185
0	852	42.501184028	0.0013906419472185
0	852	42.537472614	0.0013906419472185
0	852	42.55999298	0.0013906419472185
0	853	42.6	0.0013906419472185
0	854	42.615994472	0.0013906419472185
0	854	42.661552478	0.0013906419472185
0	855	42.7	0.0013906419472185
0	856	42.720660953	0.0013906419472185
0	856	42.759223027	0.0013906419472185
0	857	42.8	0.0013906419472185
0	858	42.812894778	0.0013906419472185
0	858	42.86794168	0.0013906419472185
0	859	42.9	0.0013906419472185
0	860	42.90913234	0.0013906419472185
0	860	42.952848096	0.0013906419472185
0	861	43	0.0013906419472185
0	862	43.002512188	0.0013906419472185
0	862	43.052043651	0.0013906419472185
0	863	43.1	0.0013906419472185
0	864	43.102458106	0.0013906419472185
0	864	43.147565374	0.0013906419472185
0	864	43.196962722	0.0013906419472185
0	865	43.2	0.0013906419472185
0	866	43.243286476	0.0013906419472185
0	866	43.28759834	0.0013906419472185
0	867	43.3	0.0013906419472185
0	868	43.325214838	0.0013906419472185
0	868	43.36937803	0.0013906419472185
0	869	43.4	0.0013906419472185
0	870	43.431094296	0.0013906419472185
0	871	43.5	0.0013906419472185
0	872	43.504722251	0.0013906419472185
0	872	43.575605607	0.0013906419472185
0	873	43.6	0.0013906419472185
0	874	43.631490388	0.0013906419472185
0	874	43.697560613	0.0013906419472185
0	875	43.7	0.0013906419472185
0	876	43.766983122	0.0013906419472185
0	877	43.8	0.0013906419472185
0	878	43.836289777	0.0013906419472185
0	879	43.9	0.0013906419472185
0	880	43.903025375	0.0013906419472185
0	880	43.970149363	0.0013906419472185
0	881	44	0.0013906419472185
0	882	44.041915623	0.0013906419472185
0	883	44.1	0.0013906419472185
0	884	44.109362678	0.0013906419472185
0	884	44.174450697	0.0013906419472185
0	885	44.2	0.0013906419472185
0	886	44.237676424	0.0013906419472185
0	887	44.3	0.0013906419472185
0	888	44.305235692	0.0013906419472185
0	888	44.362685241	0.0013906419472185
0	889	44.4	0.0013906419472185
0	890	44.424413591	0.0013906419472185
0	890	44.476941036	0.0013906419472185
0	891	44.5	0.0013906419472185
0	892	44.520684488	0.0013906419472185
0	892	44.572780014	0.0013906419472185
0	893	44.6	0.0013906419472185
0	894	44.61806585	0.0013906419472185
0	894	44.674732273	0.0013906419472185
0	895	44.7	0.0013906419472185
0	896	44.742184579	0.0013906419472185
0	897	44.8	0.0013906419472185
0	898	44.808248179	0.0013906419472185
0	898	44.876266731	0.0013906419472185
0	899	44.9	0.0013906419472185
0	900	44.941772117	0.0013906419472185
0	901	45	0.0013906419472185
0	902	45.004815988	0.0013906419472185
0	902	45.073373265	0.0013906419472185
0	903	45.1	0.0013906419472185
0	904	45.134148566	0.0013906419472185
0	904	45.189433158	0.0013906419472185
0	905	45.2	0.0013906419472185
0	906	45.26176482	0.0013906419472185
0	907	45.3	0.0013906419472185
0	908	45.335141941	0.0013906419472185
0	909	45.4	0.0013906419472185
0	910	45.409596935	0.0013906419472185
0	910	45.470541942	0.0013906419472185
0	911	45.5	0.0013906419472185
0	912	45.528651276	0.0013906419472185
0	912	45.596449944	0.0013906419472185
0	913	45.6	0.0013906419472185
0	914	45.641349068	0.0013906419472185
0	915	45.7	0.0013906419472185
0	916	45.719291813	0.0013906419472185
0	916	45.782509745	0.0013906419472185
0	917	45.8	0.0013906419472185
0	918	45.81992458	0.0013906419472185
0	918	45.867976981	0.0013906419472185
0	919	45.9	0.0013906419472185
0	920	45.91924643	0.0013906419472185
0	920	45.989940502	0.0013906419472185
0	921	46	0.0013906419472185
0	922	46.047840151	0.0013906419472185
0	923	46.1	0.0013906419472185
0	924	46.103862344	0.0013906419472185
0	924	46.154865165	0.0013906419472185
0	925	46.2	0.0013906419472185
0	926	46.201053787	0.0013906419472185
0	926	46.232922811	0.0013906419472185
0	927	46.3	0.0013906419472185
0	927	46.300632589	0.0013906419472185
0	928	46.33836093	0.0013906419472185
0	928	46.37327597	0.0013906419472185
0	929	46.4	0.0013906419472185
0	930	46.41195875	0.0013906419472185
0	930	46.451459361	0.0013906419472185
0	930	46.472526305	0.0013906419472185
0	931	46.5	0.0013906419472185
0	932	46.501924721	0.0013906419472185
0	932	46.557030996	0.0013906419472185
0	932	46.592400179	0.0013906419472185
0	933	46.6	0.0013906419472185
0	934	46.642742366	0.0013906419472185
0	934	46.677154958	0.0013906419472185
0	935	46.7	0.0013906419472185
0	936	46.743286987	0.0013906419472185
0	936	46.799858196	0.0013906419472185
0	937	46.8	0.0013906419472185
0	938	46.841530474	0.0013906419472185
0	938	46.894835913	0.0013906419472185
0	939	46.9	0.0013906419472185
0	940	46.954683347	0.0013906419472185
0	942	47	0.0013906419472185
0	943	47.007466452	0.0013906419472185
0	943	47.051989735	0.0013906419472185
0	944	47.1	0.0013906419472185
0	945	47.117090282	0.0013906419472185
0	945	47.15943352	0.0013906419472185
0	946	47.2	0.0013906419472185
0	947	47.20700974	0.0013906419472185
0	947	47.26132624	0.0013906419472185
0	948	47.3	0.0013906419472185
0	949	47.313796214	0.0013906419472185
0	949	47.377086082	0.0013906419472185
0	950	47.4	0.0013906419472185
0	951	47.409653392	0.0013906419472185
0	951	47.458002604	0.0013906419472185
0	951	47.480623534	0.0012515777524966
0	951	47.480623534	0.0012515777524966
0	952	47.5	0.0012515777524966
0	953	47.539663978	0.0012515777524966
0	953	47.581071996	0.0012515777524966
0	954	47.6	0.0012515777524966
0	955	47.614522241	0.0012515777524966
0	955	47.655738212	0.0012515777524966
0	955	47.678167209	0.0012515777524966
0	956	47.7	0.0012515777524966
0	957	47.712738153	0.0012515777524966
0	957	47.773872336	0.0012515777524966
0	958	47.8	0.0012515777524966
0	959	47.828704595	0.0012515777524966
0	959	47.891878657	0.0012515777524966
0	960	47.9	0.0012515777524966
0	961	47.927866196	0.0012515777524966
0	961	47.959522842	0.0012515777524966
0	962	48	0.001126419977247
0	962	48	0.001126419977247
0	963	48.001200597	0.001126419977247
0	963	48.061930404	0.001126419977247
0	964	48.1	0.001126419977247
0	965	48.120713684	0.001126419977247
0	965	48.157552774	0.001126419977247
0	965	48.178174211	0.001126419977247
0	966	48.2	0.001126419977247
0	967	48.221477594	0.001126419977247
0	967	48.256396157	0.001126419977247
0	968	48.3	0.001126419977247
0	969	48.306554567	0.001126419977247
0	969	48.364576413	0.001126419977247
0	970	48.4	0.001126419977247
0	971	48.408117806	0.001126419977247
0	971	48.462410128	0.001126419977247
0	972	48.5	0.001126419977247
0	973	48.513763323	0.0010137779795223
0	973	48.513763323	0.0010137779795223
0	973	48.566605091	0.0010137779795223
0	974	48.6	0.0010137779795223
0	975	48.638484048	0.0010137779795223
0	975	48.691761981	0.0010137779795223
0	976	48.7	0.0010137779795223
0	977	48.738577833	0.0010137779795223
0	978	48.8	0.0010137779795223
0	979	48.807002534	0.0010137779795223
0	979	48.862040826	0.0010137779795223
0	980	48.9	0.0010137779795223
0	981	48.924550982	0.0010137779795223
0	981	48.989147366	0.0010137779795223
0	982	49	0.0010137779795223
0	983	49.031925787	0.0010137779795223
0	983	49.080183734	0.0010137779795223
0	984	49.1	0.0010137779795223
0	985	49.13580588	0.00091240018157004
0	985	49.13580588	0.00091240018157004
0	985	49.170263425	0.00091240018157004
0	985	49.19703489	0.00091240018157004
0	986	49.2	0.00091240018157004
0	987	49.228382782	0.00091240018157004
0	987	49.256568944	0.00091240018157004
0	988	49.3	0.00091240018157004
0	989	49.303913339	0.00091240018157004
0	989	49.336378532	0.00091240018157004
0	989	49.365150979	0.00091240018157004
0	989	49.396389798	0.00091240018157004
0	990	49.4	0.00091240018157004
0	991	49.4187116	0.00091240018157004
0	991	49.459694485	0.00091240018157004
0	992	49.5	0.00091240018157004
0	993	49.506292421	0.00091240018157004
0	993	49.55206306	0.00091240018157004
0	993	49.592411585	0.00082116016341303
0	993	49.592411585	0.00082116016341303
0	994	49.6	0.00082116016341303
0	995	49.639534837	0.00082116016341303
0	995	49.688990881	0.00082116016341303
0	996	49.7	0.00082116016341303
0	997	49.738459252	0.00082116016341303
0	998	49.8	0.00082116016341303
0	999	49.80261592	0.00082116016341303
0	999	49.878671627	0.00082116016341303
0	1000	49.9	0.00082116016341303
0	1001	49.934780217	0.00082116016341303
0	1001	49.970405962	0.00082116016341303
0	1002	50	0.00082116016341303
0	1003	50.038422029	0.00082116016341303
0	1003	50.091672256	0.00082116016341303
0	1004	50.1	0.00082116016341303
0	1005	50.160506037	0.00082116016341303
0	1006	50.2	0.00073904414707173
0	1006	50.2	0.00073904414707173
0	1007	50.222462299	0.00073904414707173
0	1007	50.293615143	0.00073904414707173
0	1008	50.3	0.00073904414707173
0	1009	50.350505267	0.00073904414707173
0	1010	50.4	0.00073904414707173
0	1011	50.418963703	0.00073904414707173
0	1011	50.45244368	0.00073904414707173
0	1012	50.5	0.00073904414707173
0	1013	50.516235704	0.00073904414707173
0	1013	50.569914024	0.00073904414707173
0	1014	50.6	0.00073904414707173
0	1015	50.61772419	0.00073904414707173
0	1015	50.670083506	0.00073904414707173
0	1016	50.7	0.00073904414707173
0	1017	50.745213373	0.00073904414707173
0	1018	50.8	0.00073904414707173
0	1019	50.802182299	0.00066513973236456
0	1019	50.802182299	0.00066513973236456
0	1019	50.871455925	0.00066513973236456
0	1020	50.9	0.00066513973236456
0	1021	50.936205594	0.00066513973236456
0	1022	51	0.00066513973236456
0	1023	51.0157666	0.00066513973236456
0	1023	51.087134479	0.00066513973236456
0	1024	51.1	0.00066513973236456
0	1025	51.132675775	0.00066513973236456
0	1025	51.187646948	0.00066513973236456
0	1026	51.2	0.00066513973236456
0	1027	51.219963617	0.00066513973236456
0	1027	51.265665105	0.00066513973236456
0	1028	51.3	0.00066513973236456
0	1029	51.310494953	0.00066513973236456
0	1029	51.353229644	0.00066513973236456
0	1030	51.4	0.00066513973236456
0	1031	51.40348063	0.0005986257591281
0	1031	51.40348063	0.0005986257591281
0	1031	51.462952321	0.0005986257591281
0	1032	51.5	0.0005986257591281
0	1033	51.503355575	0.0005986257591281
0	1033	51.540791695	0.0005986257591281
0	1033	51.564381386	0.0005986257591281
0	1034	51.6	0.0005986257591281
0	1035	51.604988442	0.0005986257591281
0	1035	51.653029445	0.0005986257591281
0	1035	51.688441726	0.0005986257591281
0	1036	51.7	0.0005986257591281
0	1038	51.8	0.0005986257591281
0	1039	51.810015135	0.0005986257591281
1	0	0	0.004
1	461	23.08057828677	0
2	0	0	0.05
2	0	0.1	0.05
2	2	0.104350049	0.05
2	2	0.130828836	0.05
2	2	0.156129426	0.05
2	2	0.178603491	0.05
2	4	0.2	0.05
2	4	0.222274799	0.05
2	4	0.270306677	0.05
2	6	0.3	0.05
2	6	0.303236843	0.05
2	6	0.345068423	0.05
2	6	0.370208952	0.05
2	6	0.398498901	0.05
2	8	0.4	0.05
2	8	0.433062651	0.05
2	8	0.459827017	0.045
2	8	0.459827017	0.045
2	8	0.484369506	0.045098169956
2	10	0.5	0.045160691932
2	10	0.507776251	0.045191796936
2	10	0.552497762	0.04537068298
2	10	0.577583779	0.045471027048
2	12	0.6	0.045560691932
2	12	0.612959657	0.04561253056
2	12	0.636651379	0.045707297448
2	12	0.665680235	0.045823412872
2	14	0.7	0.045960691932
2	14	0.706563105	0.045986944352
2	14	0.743649017	0.046135288
2	14	0.79640678	0.046346319052
2	16	0.8	0.046360691932
2	16	0.845223557	0.04654158616
2	16	0.880450535	0.046682494072
2	18	0.9	0.0420846227388
2	18	0.9	0.0420846227388
2	18	0.921466334	0.0421704880748
2	20	1	0.0424846227388
2	20	1.007793581	0.0425157970628
2	20	1.035046871	0.0426248102228
2	20	1.078041017	0.0427967868068
2	22	1.1	0.0428846227388
2	22	1.176947676	0.0431924134428
2	24	1.2	0.0432846227388
2	26	1.3	0.0436846227388
2	26	1.306826499	0.0437119287348
2	28	1.4	0.0440846227388
2	28	1.405993137	0.0441085952868
2	28	1.467670791	0.0443553059028
2	30	1.5	0.0444846227388
2	30	1.526369159	0.0445900993748
2	30	1.573389871	0.0447781822228
2	32	1.6	0.04039616046492
2	32	1.6	0.04039616046492
2	32	1.67261213	0.04068660898492
2	34	1.7	0.04079616046492
2	36	1.8	0.04119616046492
2	36	1.816989718	0.04126411933692
2	38	1.9	0.04159616046492
2	38	1.901701316	0.04160296572892
2	38	1.99304509	0.04196834082492
2	40	2	0.04199616046492
2	40	2.079115733	0.04231262339692
2	42	2.1	0.04239616046492
2	42	2.1584262	0.04262986526492
2	44	2.2	0.04279616046492
2	44	2.210854973	0.04283958035692
2	44	2.243402526	0.04296977056892
2	44	2.282732945	0.04312709224492
2	46	2.3	0.04319616046492
2	46	2.319551807	0.038946930923628
2	46	2.319551807	0.038946930923628
2	46	2.367906593	0.039140350067628
2	48	2.4	0.039268723695628
2	48	2.401972768	0.039276614767628
2	48	2.42506992	0.039369003375628
2	48	2.446171029	0.039453407811628
2	48	2.474466252	0.039566588703628
2	48	2.495988351	0.039652677099628
2	50	2.5	0.039668723695628
2	50	2.536932843	0.039816455067628
2	50	2.561897929	0.039916315411628
2	50	2.590678427	0.040031437403628
2	52	2.6	0.040068723695628
2	52	2.620180461	0.040149445539628
2	52	2.642899867	0.040240323163628
2	52	2.68289203	0.040400291815628
2	54	2.7	0.040468723695628
2	54	2.724993246	0.036511827011665
2	54	2.724993246	0.036511827011665
2	54	2.774780872	0.036710977515665
2	56	2.8	0.036811854027665
2	56	2.830862623	0.036935304519665
2	56	2.878391136	0.037125418571665
2	58	2.9	0.037211854027665
2	58	2.930711218	0.037334698899665
2	58	2.977574969	0.037522153903665
2	60	3	0.037611854027665
2	60	3.017922825	0.037683545327665
2	60	3.048204353	0.037804671439665
2	60	3.081016606	0.037935920451665
2	62	3.1	0.038011854027665
2	62	3.121361311	0.038097299271665
2	62	3.164647328	0.038270443339665
2	62	3.198726982	0.038406761955665
2	64	3.2	0.038411854027665
2	64	3.257020614	0.034775942835299
2	64	3.257020614	0.034775942835299
2	64	3.293915446	0.034923522163299
2	66	3.3	0.034947860379299
2	66	3.35819178	0.035180627499299
2	68	3.4	0.035347860379299
2	68	3.407676343	0.035378565751299
2	68	3.460359623	0.035589298871299
2	70	3.5	0.035747860379299
2	70	3.526461786	0.035853707523299
2	70	3.593999151	0.036123856983299
2	72	3.6	0.036147860379299
2	72	3.650219962	0.036348740227299
2	74	3.7	0.036547860379299
2	74	3.710500653	0.036589862991299
2	74	3.756843962	0.036775236227299
2	76	3.8	0.036947860379299
2	76	3.806656391	0.036974485943299
2	76	3.873975448	0.033519385954169
2	76	3.873975448	0.033519385954169
2	78	3.9	0.033623484162169
2	78	3.926491047	0.033729448350169
2	78	3.980139435	0.033944041902169
2	80	4	0.034023484162169
2	80	4.033841763	0.034158851214169
2	80	4.086890955	0.034371047982169
2	82	4.1	0.034423484162169
2	82	4.142499711	0.034593483006169
2	82	4.192101009	0.034791888198169
2	84	4.2	0.034823484162169
2	84	4.227351135	0.034932888702169
2	84	4.266120783	0.035087967294169
2	86	4.3	0.035223484162169
2	86	4.304561856	0.035241731586169
2	86	4.336924514	0.035371182218169
2	86	4.373867904	0.035518955778169
2	88	4.4	0.032061135745952
2	88	4.4	0.032061135745952
2	88	4.406659915	0.032087775405952
2	88	4.430870765	0.032184618805952
2	88	4.460567271	0.032303404829952
2	88	4.483956521	0.032396961829952
2	90	4.5	0.032461135745952
2	90	4.508407809	0.032494766981952
2	90	4.543150491	0.032633737709952
2	90	4.581704361	0.032787953189952
2	92	4.6	0.032861135745952
2	92	4.60733488	0.032890475265952
2	92	4.629103371	0.032977549229952
2	92	4.663645532	0.033115717873952
2	92	4.688210009	0.033213975781952
2	94	4.7	0.033261135745952
2	94	4.715501908	0.033323143377952
2	94	4.760312262	0.033502384793952
2	94	4.798553239	0.030289813831757
2	94	4.798553239	0.030289813831757
2	96	4.8	0.030295600875757
2	96	4.839935879	0.030455344391757
2	96	4.897147858	0.030684192307757
2	98	4.9	0.030695600875757
2	98	4.948652788	0.030890212027757
2	98	4.998522073	0.031089689167757
2	100	5	0.031095600875757
2	100	5.026010057	0.031199641103757
2	100	5.076921704	0.031403287691757
2	102	5.1	0.031495600875757
2	102	5.121637862	0.031582152323757
2	102	5.176667019	0.031802268951757
2	104	5.2	0.031895600875757
2	104	5.206556665	0.031921827535757
2	104	5.233694925	0.032030380575757
2	104	5.259149397	0.032132198463757
2	104	5.290874731	0.029033189819781
2	104	5.290874731	0.029033189819781
2	106	5.3	0.029069690895781
2	106	5.324795776	0.029168873999781
2	106	5.3636566	0.029324317295781
2	106	5.386392719	0.029415261771781
2	108	5.4	0.029469690895781
2	108	5.424758672	0.029568725583781
2	108	5.447623164	0.029660183551781
2	108	5.488110015	0.029822130955781
2	110	5.5	0.029869690895781
2	110	5.514198479	0.029926484811781
2	110	5.542045535	0.030037873035781
2	110	5.565093431	0.030130064619781
2	110	5.590186658	0.030230437527781
2	112	5.6	0.030269690895781
2	112	5.621950703	0.030357493707781
2	112	5.645357795	0.030451122075781
2	112	5.681447996	0.027535934591803
2	112	5.681447996	0.027535934591803
2	114	5.7	0.027610142607803
2	114	5.709136948	0.027646690399803
2	114	5.739050268	0.027766343679803
2	114	5.798610012	0.028004582655803
2	116	5.8	0.028010142607803
2	116	5.84349144	0.028184108367803
2	118	5.9	0.028410142607803
2	118	5.90060788	0.028412574127803
2	118	5.936518544	0.028556216783803
2	118	5.976339183	0.028715499339803
2	120	6	0.028810142607803
2	120	6.011241336	0.028855107951803
2	120	6.058205168	0.029042963279803
2	122	6.1	0.029210142607803
2	122	6.104750227	0.029229143515803
2	122	6.141258145	0.029375175187803
2	122	6.164376096	0.026520882292623
2	122	6.164376096	0.026520882292623
2	122	6.191373018	0.026628869980623
2	124	6.2	0.026663377908623
2	124	6.226795813	0.026770561160623
2	124	6.268042432	0.026935547636623
2	126	6.3	0.027063377908623
2	126	6.315399651	0.027124976512623
2	126	6.366345984	0.027328761844623
2	128	6.4	0.027463377908623
2	128	6.409507554	0.027501408124623
2	128	6.438169281	0.027616055032623
2	128	6.471570393	0.027749659480623
2	128	6.496615393	0.027849839480623
2	130	6.5	0.027863377908623
2	130	6.528506036	0.027977402052623
2	130	6.551931618	0.028071104380623
2	130	6.578998436	0.028179371652623
2	132	6.6	0.02543704011776
2	132	6.6	0.02543704011776
2	132	6.619111132	0.02551348464576
2	132	6.649869892	0.02563651968576
2	132	6.693059529	0.02580927823376
2	134	6.7	0.02583704011776
2	134	6.733178276	0.02596975322176
2	134	6.761261628	0.02608208662976
2	136	6.8	0.02623704011776
2	136	6.801283976	0.02624217602176
2	136	6.836728251	0.02638395312176
2	138	6.9	0.02663704011776
2	138	6.905915515	0.02666070217776
2	138	6.944556377	0.02681526562576
2	138	6.996832378	0.02702436962976
2	140	7	0.02703704011776
2	140	7.042463701	0.02720689492176
2	140	7.094292515	0.02741421017776
2	142	7.1	0.024693336105984
2	142	7.1	0.024693336105984
2	142	7.146076349	0.024877641501984
2	142	7.185585987	0.025035680053984
2	144	7.2	0.025093336105984
2	144	7.221470529	0.025179218221984
2	144	7.265049494	0.025353534081984
2	146	7.3	0.025493336105984
2	146	7.301388909	0.025498891741984
2	146	7.357322882	0.025722627633984
2	148	7.4	0.025893336105984
2	148	7.409782507	0.025932466133984
2	148	7.457901892	0.026124943673984
2	148	7.484672156	0.026232024729984
2	150	7.5	0.026293336105984
2	150	7.519087926	0.026369687809984
2	150	7.544065162	0.026469596753984
2	150	7.580709916	0.026616175769984
2	152	7.6	0.024024002495386
2	152	7.6	0.024024002495386
2	152	7.625201101	0.024124806899386
2	152	7.662118179	0.024272475211386
2	154	7.7	0.024424002495386
2	154	7.705852001	0.024447410499386
2	154	7.733784646	0.024559141079386
2	154	7.787779389	0.024775120051386
2	156	7.8	0.024824002495386
2	156	7.817692349	0.024894771891386
2	156	7.848531999	0.025018130491386
2	158	7.9	0.025224002495386
2	158	7.904418254	0.025241675511386
2	158	7.953402276	0.025437611599386
2	158	7.989511706	0.025582049319386
2	160	8	0.025624002495386
2	160	8.029996368	0.025743987967386
2	160	8.074613275	0.025922455595386
2	162	8.1	0.023421602245847
2	162	8.1	0.023421602245847
2	162	8.117173155	0.023490294865847
2	162	8.172789575	0.023712760545847
2	164	8.2	0.023821602245847
2	164	8.204584031	0.023839938369847
2	164	8.240817168	0.023984870917847
2	164	8.289380093	0.024179122617847
2	166	8.3	0.024221602245847
2	166	8.341215163	0.024386462897847
2	166	8.374139862	0.024518161693847
2	168	8.4	0.024621602245847
2	168	8.403836513	0.024636948297847
2	168	8.450169133	0.024822278777847
2	170	8.5	0.025021602245847
2	170	8.500704946	0.025024422029847
2	170	8.535375747	0.025163105233847
2	170	8.581534146	0.025347738829847
2	172	8.6	0.022879442021263
2	172	8.6	0.022879442021263
2	172	8.637529866	0.023029561485263
2	174	8.7	0.023279442021263
2	174	8.703829017	0.023294758089263
2	174	8.759113331	0.023515895345263
2	176	8.8	0.023679442021263
2	176	8.81799963	0.023751440541263
2	176	8.874507323	0.023977471313263
2	178	8.9	0.024079442021263
2	178	8.935538016	0.024221594085263
2	178	8.997571351	0.024469727425263
2	180	9	0.024479442021263
2	180	9.054356914	0.024696869677263
2	180	9.097357829	0.024868873337263
2	182	9.1	0.024879442021263
2	182	9.171053687	0.025163656769263
2	184	9.2	0.025279442021263
2	184	9.233802177	0.022873185656336
2	184	9.233802177	0.022873185656336
2	184	9.274925294	0.023037678124336
2	186	9.3	0.023137976948336
2	186	9.315630339	0.023200498304336
2	186	9.370865638	0.023421439500336
2	188	9.4	0.023537976948336
2	188	9.412903137	0.023589589496336
2	188	9.454594901	0.023756356552336
2	188	9.495835214	0.023921317804336
2	190	9.5	0.023937976948336
2	190	9.533447454	0.024071766764336
2	190	9.589478015	0.024295889008336
2	192	9.6	0.024337976948336
2	192	9.654077278	0.024554286060336
2	192	9.696147787	0.024722568096336
2	194	9.7	0.024737976948336
2	194	9.76044981	0.024979776188336
2	196	9.8	0.022624179253503
2	196	9.8	0.022624179253503
2	196	9.831184515	0.022748917313503
2	198	9.9	0.023024179253503
2	198	9.911420902	0.023069862861503
2	198	9.979041253	0.023340344265503
2	200	10	0.023424179253503
2	200	10.045757594	0.023607209629503
2	202	10.1	0.023824179253503
2	202	10.118190302	0.023896940461503
2	202	10.167647915	0.024094770913503
2	204	10.2	0.024224179253503
2	204	10.208967987	0.024260051201503
2	204	10.24796257	0.024416029533503
2	204	10.28853757	0.024578329533503
2	206	10.3	0.024624179253503
2	206	10.325660492	0.024726821221503
2	206	10.392983712	0.024996114101503
2	208	10.4	0.022521761328152
2	208	10.4	0.022521761328152
2	208	10.466068873	0.022786036820152
2	210	10.5	0.022921761328152
2	210	10.532301812	0.023050968576152
2	210	10.598504226	0.023315778232152
2	212	10.6	0.023321761328152
2	212	10.66576264	0.023584811888152
2	214	10.7	0.023721761328152
2	214	10.717027288	0.023789870480152
2	214	10.781607919	0.024048193004152
2	216	10.8	0.024121761328152
2	216	10.849302068	0.024318969600152
2	218	10.9	0.024521761328152
2	218	10.921907697	0.024609392116152
2	218	10.990494764	0.024883740384152
2	220	11	0.024921761328152
2	220	11.067223873	0.025190656820152
2	222	11.1	0.022789585195337
2	222	11.1	0.022789585195337
2	222	11.149612959	0.022988037031337
2	224	11.2	0.023189585195337
2	224	11.242617228	0.023360054107337
2	226	11.3	0.023589585195337
2	226	11.327501544	0.023699591371337
2	228	11.4	0.023989585195337
2	228	11.406907486	0.024017215139337
2	228	11.466687272	0.024256334283337
2	230	11.5	0.024389585195337
2	230	11.514057544	0.024445815371337
2	230	11.574383948	0.024687120987337
2	232	11.6	0.024789585195337
2	232	11.62207652	0.024877891275337
2	232	11.699571981	0.025187873119337
2	234	11.7	0.025189585195337
2	234	11.762570769	0.025439868271337
2	236	11.8	0.023030626675803
2	236	11.8	0.023030626675803
2	236	11.822114308	0.023119083907803
2	236	11.886088603	0.023374981087803
2	238	11.9	0.023430626675803
2	238	11.954579881	0.023648946199803
2	240	12	0.023830626675803
2	240	12.0332161	0.023963491075803
2	242	12.1	0.024230626675803
2	242	12.11291892	0.024282302355803
2	244	12.2	0.024630626675803
2	244	12.246387547	0.024816176863803
2	244	12.291687564	0.024997376931803
2	246	12.3	0.025030626675803
2	246	12.342143487	0.025199200623803
2	248	12.4	0.025430626675803
2	248	12.407907322	0.025462255963803
2	248	12.453397423	0.025644216367803
2	250	12.5	0.023247564008223
2	250	12.5	0.023247564008223
2	250	12.502685307	0.023258305236223
2	250	12.535946434	0.023391349744223
2	250	12.589111143	0.023604008580223
2	252	12.6	0.023647564008223
2	252	12.623341884	0.023740931544223
2	252	12.665035002	0.023907704016223
2	254	12.7	0.024047564008223
2	254	12.734473438	0.024185457760223
2	254	12.799437561	0.024445314252223
2	256	12.8	0.024447564008223
2	256	12.880551348	0.024769769400223
2	258	12.9	0.024847564008223
2	258	12.955844197	0.025070940796223
2	260	13	0.025247564008223
2	260	13.024293258	0.025344737040223
2	260	13.070430102	0.025529284416223
2	262	13.1	0.023082807607401
2	262	13.1	0.023082807607401
2	262	13.130639169	0.023205364283401
2	262	13.171820599	0.023370090003401
2	264	13.2	0.023482807607401
2	264	13.222432225	0.023572536507401
2	264	13.284326199	0.023820112403401
2	266	13.3	0.023882807607401
2	266	13.350323668	0.024084102279401
2	268	13.4	0.024282807607401
2	268	13.407699727	0.024313606515401
2	268	13.459359668	0.024520246279401
2	270	13.5	0.024682807607401
2	270	13.512614293	0.024733264779401
2	270	13.558632433	0.024917337339401
2	272	13.6	0.025082807607401
2	272	13.602000375	0.025090809107401
2	272	13.673900473	0.025378409499401
2	274	13.7	0.022934526846661
2	274	13.7	0.022934526846661
2	274	13.734013185	0.023070579586661
2	274	13.7805054	0.023256548446661
2	276	13.8	0.023334526846661
2	276	13.823965165	0.023430387506661
2	276	13.869851144	0.023613931422661
2	278	13.9	0.023734526846661
2	278	13.924060393	0.023830768418661
2	278	13.99593843	0.024118280566661
2	280	14	0.024134526846661
2	280	14.043151119	0.024307131322661
2	280	14.086193434	0.024479300582661
2	282	14.1	0.024534526846661
2	282	14.127459827	0.024644366154661
2	282	14.169904469	0.024814144722661
2	284	14.2	0.024934526846661
2	284	14.209716959	0.024973394682661
2	284	14.240683525	0.022587534851995
2	284	14.240683525	0.022587534851995
2	284	14.288464348	0.022778658143995
2	286	14.3	0.022824800751995
2	286	14.33846568	0.022978663471995
2	286	14.382223229	0.023153693667995
2	288	14.4	0.023224800751995
2	288	14.425270951	0.023325884555995
2	288	14.455846082	0.023448185079995
2	288	14.485730026	0.023567720855995
2	290	14.5	0.023624800751995
2	290	14.527807531	0.023736030875995
2	290	14.562856272	0.023876225839995
2	290	14.592659048	0.023995436943995
2	292	14.6	0.024024800751995
2	292	14.655446512	0.024246586799995
2	294	14.7	0.024424800751995
2	294	14.710446461	0.024466586595995
2	294	14.782331237	0.022278713129995
2	294	14.782331237	0.022278713129995
2	296	14.8	0.022349388181995
2	296	14.850386772	0.022550935269995
2	296	14.889042227	0.022705557089995
2	298	14.9	0.022749388181995
2	298	14.94585651	0.022932814221995
2	298	14.993788876	0.023124543685995
2	300	15	0.023149388181995
2	300	15.066933313	0.023417121433995
2	302	15.1	0.023549388181995
2	302	15.13691547	0.023697050061995
2	302	15.193746163	0.023924372833995
2	304	15.2	0.023949388181995
2	304	15.266265164	0.024214448837995
2	306	15.3	0.024349388181995
2	306	15.343828994	0.024524704157995
2	308	15.4	0.024749388181995
2	308	15.410997513	0.022314040410596
2	308	15.410997513	0.022314040410596
2	308	15.45264312	0.022480622838596
2	308	15.498072557	0.022662340586596
2	310	15.5	0.022670050358596
2	310	15.542685865	0.022840793818596
2	310	15.588372739	0.023023541314596
2	312	15.6	0.023070050358596
2	312	15.662063092	0.023318302726596
2	314	15.7	0.023470050358596
2	314	15.716563777	0.023536305466596
2	314	15.762130892	0.023718573926596
2	316	15.8	0.023870050358596
2	316	15.82522291	0.023970941998596
2	316	15.885911615	0.024213696818596
2	318	15.9	0.024270050358596
2	318	15.93112571	0.024394553198596
2	320	16	0.024670050358596
2	320	16.009590065	0.022237569556736
2	320	16.009590065	0.022237569556736
2	320	16.078011836	0.022511256640736
2	322	16.1	0.022599209296736
2	322	16.153321848	0.022812496688736
2	324	16.2	0.022999209296736
2	324	16.225776532	0.023102315424736
2	324	16.294359156	0.023376645920736
2	326	16.3	0.023399209296736
2	326	16.367851091	0.023670613660736
2	328	16.4	0.023799209296736
2	328	16.435655525	0.023941831396736
2	328	16.482073358	0.024127502728736
2	330	16.5	0.024199209296736
2	330	16.560672037	0.024441897444736
2	332	16.6	0.024599209296736
2	332	16.628925414	0.024714910952736
2	332	16.696204184	0.024984026032736
2	334	16.7	0.022499288367062
2	334	16.7	0.022499288367062
2	334	16.760105091	0.022739708731062
2	336	16.8	0.022899288367062
2	336	16.807040146	0.022927448951062
2	336	16.8684204	0.023172969967062
2	338	16.9	0.023299288367062
2	338	16.914142379	0.023355857883062
2	338	16.980349734	0.023620687303062
2	340	17	0.023699288367062
2	340	17.032760266	0.023830329431062
2	340	17.088225649	0.024052190963062
2	342	17.1	0.024099288367062
2	342	17.134624988	0.024237788319062
2	342	17.188170186	0.024451969111062
2	344	17.2	0.024499288367062
2	344	17.222256534	0.024588314503062
2	344	17.253307966	0.024712520231062
2	344	17.286499815	0.022360758864356
2	344	17.286499815	0.022360758864356
2	346	17.3	0.022414759604356
2	346	17.321145448	0.022499341396356
2	346	17.37354673	0.022708946524356
2	348	17.4	0.022814759604356
2	348	17.435160402	0.022955401212356
2	348	17.475896012	0.023118343652356
2	348	17.499306585	0.023211985944356
2	350	17.5	0.023214759604356
2	350	17.543018454	0.023386833420356
2	350	17.575163726	0.023515414508356
2	352	17.6	0.023614759604356
2	352	17.617340727	0.023684122512356
2	352	17.647840019	0.023806119680356
2	352	17.679512338	0.023932808956356
2	354	17.7	0.024014759604356
2	354	17.703835752	0.024030102612356
2	354	17.76169296	0.021835378299921
2	354	17.76169296	0.021835378299921
2	356	17.8	0.021988606459921
2	356	17.815802231	0.022051815383921
2	356	17.864993041	0.022248578623921
2	358	17.9	0.022388606459921
2	358	17.909403912	0.022426222107921
2	358	17.957664273	0.022619263551921
2	358	17.988585016	0.022742946523921
2	360	18	0.022788606459921
2	360	18.0421655	0.022957268459921
2	360	18.084173997	0.023125302447921
2	362	18.1	0.023188606459921
2	362	18.138811681	0.023343853183921
2	362	18.177610124	0.023499046955921
2	364	18.2	0.023588606459921
2	364	18.233782793	0.023723737631921
2	364	18.266107284	0.023853035595921
2	366	18.3	0.021589745813929
2	366	18.3	0.021589745813929
2	366	18.322083082	0.021678078141929
2	366	18.352335836	0.021799089157929
2	366	18.396698207	0.021976538641929
2	368	18.4	0.021989745813929
2	368	18.443368818	0.022163221085929
2	368	18.482205857	0.022318569241929
2	370	18.5	0.022389745813929
2	370	18.524383539	0.022487279969929
2	370	18.564161407	0.022646391441929
2	372	18.6	0.022789745813929
2	372	18.614203682	0.022846560541929
2	372	18.665465842	0.023051609181929
2	374	18.7	0.023189745813929
2	374	18.707338733	0.023219100745929
2	374	18.754039219	0.023405902689929
2	374	18.784386625	0.023527292313929
2	376	18.8	0.021230771232536
2	376	18.8	0.021230771232536
2	376	18.813876514	0.021286277288536
2	376	18.848807841	0.021426002596536
2	376	18.871484085	0.021516707572536
2	378	18.9	0.021630771232536
2	378	18.907147298	0.021659360424536
2	378	18.930846968	0.021754159104536
2	378	18.970574171	0.021913067916536
2	380	19	0.022030771232536
2	380	19.024588403	0.022129124844536
2	380	19.050537839	0.022232922588536
2	382	19.1	0.022430771232536
2	382	19.101575963	0.022437075084536
2	382	19.146210533	0.022615613364536
2	384	19.2	0.022830771232536
2	384	19.234296583	0.022967957564536
2	386	19.3	0.023230771232536
2	386	19.304045857	0.020922259194482
2	386	19.304045857	0.020922259194482
2	386	19.349239879	0.021103035282482
2	386	19.390351872	0.021267483254482
2	388	19.4	0.021306075766482
2	388	19.424071173	0.021402360458482
2	388	19.461649705	0.021552674586482
2	390	19.5	0.021706075766482
2	390	19.508366659	0.021739542402482
2	390	19.547234026	0.021895011870482
2	390	19.571550235	0.021992276706482
2	392	19.6	0.022106075766482
2	392	19.609997188	0.022146064518482
2	392	19.641015527	0.022270137874482
2	392	19.673153304	0.022398688982482
2	392	19.69514938	0.022486673286482
2	394	19.7	0.022506075766482
2	394	19.734798649	0.022645270362482
2	394	19.782237659	0.020551523762234
2	394	19.782237659	0.020551523762234
2	396	19.8	0.020622573126234
2	396	19.857971384	0.020854458662234
2	398	19.9	0.021022573126234
2	398	19.936008871	0.021166608610234
2	398	19.995163345	0.021403226506234
2	400	20	0.021422573126234
2	400	20.061759643	0.021669611698234
2	402	20.1	0.021822573126234
2	402	20.128492444	0.021936542902234
2	402	20.177879103	0.022134089538234
2	404	20.2	0.022222573126234
2	404	20.236580427	0.022368894834234
2	404	20.295466969	0.022604441002234
2	406	20.3	0.022622573126234
2	406	20.336746835	0.022769560466234
2	406	20.371879289	0.022910090282234
2	408	20.4	0.020720315813611
2	408	20.4	0.020720315813611
2	408	20.404613174	0.020738768509611
2	408	20.433817369	0.020855585289611
2	410	20.5	0.021120315813611
2	410	20.505571612	0.021142602261611
2	410	20.574987547	0.021420266001611
2	412	20.6	0.021520315813611
2	412	20.638356643	0.021673742385611
2	414	20.7	0.021920315813611
2	414	20.73524601	0.022061299853611
2	416	20.8	0.022320315813611
2	416	20.809301914	0.022357523469611
2	416	20.885346108	0.022661700245611
2	418	20.9	0.022720315813611
2	418	20.954496853	0.022938303225611
2	420	21	0.023120315813611
2	420	21.022491021	0.023210279897611
2	420	21.082200748	0.021104206925049
2	420	21.082200748	0.021104206925049
2	422	21.1	0.021175403933049
2	422	21.145894602	0.021358982341049
2	424	21.2	0.021575403933049
2	424	21.214369548	0.021632882125049
2	424	21.278509904	0.021889443549049
2	426	21.3	0.021975403933049
2	426	21.353181677	0.022188130641049
2	428	21.4	0.022375403933049
2	428	21.414470991	0.022433287897049
2	428	21.460539189	0.022617560689049
2	430	21.5	0.022775403933049
2	430	21.509551031	0.022813608057049
2	430	21.561571153	0.023021688545049
2	432	21.6	0.023175403933049
2	432	21.607480724	0.023205326829049
2	432	21.661035133	0.023419544465049
2	434	21.7	0.021217863539745
2	434	21.7	0.021217863539745
2	434	21.71025814	0.021258896099745
2	434	21.756342616	0.021443234003745
2	436	21.8	0.021617863539745
2	436	21.800997752	0.021621854547745
2	436	21.827359287	0.021727300687745
2	436	21.851219853	0.021822742951745
2	438	21.9	0.022017863539745
2	438	21.913340354	0.022071224955745
2	438	21.970057126	0.022298092043745
2	440	22	0.022417863539745
2	440	22.018801662	0.022493070187745
2	440	22.069484301	0.022695800743745
2	442	22.1	0.022817863539745
2	442	22.12127877	0.022902978619745
2	442	22.162692378	0.023068633051745
2	444	22.2	0.023217863539745
2	444	22.212571205	0.02094133352377
2	444	22.212571205	0.02094133352377
2	444	22.246993292	0.02107902187177
2	444	22.298889751	0.02128660770777
2	446	22.3	0.02129104870377
2	446	22.359246901	0.02152803630777
2	448	22.4	0.02169104870377
2	448	22.417591982	0.02176141663177
2	448	22.474443025	0.02198882080377
2	450	22.5	0.02209104870377
2	450	22.524706803	0.02218987591577
2	450	22.581335278	0.02241638981577
2	452	22.6	0.02249104870377
2	452	22.638011998	0.02264309669577
2	454	22.7	0.02289104870377
2	454	22.704182718	0.02290777957577
2	454	22.781273179	0.02321614141977
2	456	22.8	0.02329104870377
2	456	22.852949603	0.021152562404193
2	456	22.852949603	0.021152562404193
2	458	22.9	0.021340763992193
2	458	22.90159238	0.021347133512193
2	458	22.965275927	0.021601867700193
2	460	23	0.021740763992193
2	460	23.004184519	0.021757502068193
2	460	23.051805914	0.021947987648193
2	463	23.1	0.022140763992193
2	463	23.105738652	0.022163718600193
2	463	23.153531436	0.022354889736193
2	465	23.2	0.022540763992193
2	465	23.200685591	0.022543506356193
2	465	23.240985752	0.022704707000193
2	465	23.265446293	0.022802549164193
2	465	23.297165603	0.022929426404193
2	467	23.3	0.022940763992193
2	467	23.328776346	0.023055869376193
2	467	23.376460734	0.023246606928193
2	469	23.4	0.023340763992193
2	469	23.424717617	0.023439634460193
2	469	23.463156275	0.023593389092193
2	471	23.5	0.023740763992193
2	471	23.513593764	0.023795139048193
2	471	23.559479836	0.023978683336193
2	473	23.6	0.024140763992193
2	473	23.604079624	0.024157082488193
2	473	23.642675152	0.024311464600193
2	475	23.7	0.024540763992193
2	475	23.704280844	0.024557887368193
2	475	23.770820538	0.024824046144193
2	477	23.8	0.024940763992193
2	477	23.825251161	0.025041768636193
2	477	23.870323833	0.025222059324193
2	479	23.9	0.025340763992193
2	479	23.925075083	0.025441064324193
2	479	23.9774955	0.025650745992193
2	481	24	0.025740763992193
2	481	24.023905552	0.025836386200193
2	481	24.054841512	0.025960130040193
2	481	24.099170236	0.026137444936193
2	483	24.1	0.026140763992193
2	483	24.137678572	0.026291478280193
2	483	24.185496352	0.026482749400193
2	485	24.2	0.026540763992193
2	485	24.239128615	0.026697278452193
2	485	24.285035544	0.026880906168193
2	487	24.3	0.026940763992193
2	487	24.318477946	0.027014675776193
2	487	24.365143678	0.027201338704193
2	489	24.4	0.027340763992193
2	489	24.404932692	0.027360494760193
2	489	24.433727873	0.027475675484193
2	489	24.470559066	0.027623000256193
2	489	24.493678108	0.027715476424193
2	491	24.5	0.027740763992193
2	491	24.533617272	0.027875233080193
2	491	24.566985964	0.028008707848193
2	493	24.6	0.028140763992193
2	493	24.61272874	0.028191678952193
2	493	24.661060644	0.028385006568193
2	493	24.698266132	0.028533828520193
2	495	24.7	0.028540763992193
2	495	24.726687947	0.028647515780193
2	495	24.754497514	0.028758754048193
2	495	24.785108441	0.028881197756193
2	497	24.8	0.028940763992193
2	497	24.80729782	0.028969955272193
2	497	24.850623154	0.029143256608193
2	497	24.882767477	0.029271833900193
2	499	24.9	0.029340763992193
2	499	24.922039167	0.029428920660193
2	499	24.973051494	0.029632969968193
2	501	25	0.029740763992193
2	501	25.027314942	0.029850023760193
2	501	25.081040856	0.030064927416193
2	503	25.1	0.030140763992193
2	503	25.128728258	0.030255677024193
2	503	25.165040727	0.030400926900193
2	505	25.2	0.030540763992193
2	505	25.205762522	0.030563814080193
2	505	25.244227563	0.030717674244193
2	505	25.292567537	0.030911034140193
2	507	25.3	0.030940763992193
2	507	25.349699248	0.031139560984193
2	509	25.4	0.031340763992193
2	509	25.404383641	0.031358298556193
2	509	25.450594835	0.031543143332193
2	511	25.5	0.031740763992193
2	511	25.505077778	0.031761075104193
2	511	25.536546456	0.031886949816193
2	511	25.564886092	0.032000308360193
2	513	25.6	0.032140763992193
2	513	25.608362834	0.032174215328193
2	513	25.648911753	0.032336411004193
2	513	25.696792152	0.032527932600193
2	515	25.7	0.032540763992193
2	515	25.727449391	0.032650561556193
2	515	25.772370882	0.032830247520193
2	517	25.8	0.032940763992193
2	517	25.809343197	0.032978136780193
2	517	25.849752236	0.033139772936193
2	517	25.891257851	0.033305795396193
2	519	25.9	0.033340763992193
2	519	25.94077398	0.033503859912193
2	519	25.963979929	0.033596683708193
2	521	26	0.033740763992193
2	521	26.005195093	0.033761544364193
2	521	26.055040382	0.033960925520193
2	521	26.083182302	0.034073493200193
2	523	26.1	0.034140763992193
2	523	26.127374664	0.034250262648193
2	523	26.157337809	0.034370115228193
2	523	26.193641764	0.034515331048193
2	525	26.2	0.034540763992193
2	525	26.21792564	0.034612466552193
2	525	26.252696984	0.034751551928193
2	525	26.281660062	0.034867404240193
2	527	26.3	0.034940763992193
2	527	26.314645418	0.034999345664193
2	527	26.350675915	0.035143467652193
2	529	26.4	0.035340763992193
2	529	26.401382107	0.035346292420193
2	529	26.459436344	0.035578509368193
2	531	26.5	0.035740763992193
2	531	26.505588928	0.035763119704193
2	531	26.557071089	0.035969048348193
2	533	26.6	0.036140763992193
2	533	26.609075751	0.036177066996193
2	533	26.638172197	0.036293452780193
2	533	26.667700205	0.036411564812193
2	535	26.7	0.036540763992193
2	535	26.703500572	0.036554766280193
2	535	26.729686805	0.036659511212193
2	535	26.758726097	0.036775668380193
2	535	26.789762796	0.036899815176193
2	537	26.8	0.036940763992193
2	537	26.818965967	0.037016627860193
2	537	26.859630279	0.037179285108193
2	537	26.882678127	0.037271476500193
2	539	26.9	0.037340763992193
2	539	26.926285417	0.037445905660193
2	539	26.961586511	0.037587110036193
[...]
2	601	30.041350756	0.049906167016193
2	601	30.099919406	0.05
2	603	30.1	0.05
2	603	30.141722044	0.05
2	605	30.2	0.05
2	605	30.20388601	0.05
2	605	30.244833811	0.05
2	605	30.296730992	0.05
2	607	30.3	0.05
2	607	30.330753127	0.05
2	607	30.37109974	0.05
2	609	30.4	0.05
2	609	30.420657866	0.05
2	609	30.474404476	0.05
2	611	30.5	0.05
2	611	30.514178609	0.05
2	611	30.567650606	0.05
2	613	30.6	0.05
2	613	30.606110266	0.05
2	613	30.658039602	0.05
2	615	30.7	0.05
2	615	30.713596398	0.05
2	615	30.76910753	0.05
2	617	30.8	0.05
2	617	30.811878244	0.05
2	617	30.844316199	0.05
2	617	30.887467303	0.05
2	619	30.9	0.05
2	619	30.925665504	0.05
2	619	30.948262016	0.05
2	619	30.99401114	0.05
2	621	31	0.05
2	621	31.041324769	0.05
2	621	31.081159107	0.05
2	623	31.1	0.05
2	623	31.129704642	0.05
2	623	31.171559855	0.05
2	625	31.2	0.05
2	625	31.200919771	0.05
2	625	31.238227981	0.05
2	625	31.291829683	0.05
2	627	31.3	0.05
2	627	31.333620658	0.05
2	627	31.374993296	0.05
2	629	31.4	0.05
2	629	31.415585786	0.05
2	629	31.476772366	0.05
2	631	31.5	0.05
2	631	31.541658281	0.05
2	631	31.572625681	0.05
2	633	31.6	0.05
2	633	31.617162993	0.05
2	633	31.655350067	0.05
2	635	31.7	0.05
2	635	31.7118278	0.05
2	635	31.746956462	0.05
2	637	31.8	0.05
2	637	31.81312814	0.05
2	637	31.855015371	0.05
2	639	31.9	0.05
2	639	31.921598184	0.05
2	639	31.965986967	0.05
2	641	32	0.05
2	641	32.011737216	0.05
2	641	32.045161295	0.05
2	641	32.074465633	0.05
2	643	32.1	0.05
2	643	32.105755099	0.05
2	643	32.147109838	0.05
2	643	32.188971876	0.05
2	645	32.2	0.05
2	645	32.237666194	0.05
2	645	32.283625384	0.05
2	647	32.3	0.05
2	647	32.321171093	0.05
2	647	32.365486967	0.05
2	647	32.395417844	0.05
2	649	32.4	0.05
2	649	32.447385655	0.05
2	649	32.477729787	0.05
2	651	32.5	0.05
2	651	32.52664061	0.05
2	651	32.565649575	0.05
2	653	32.6	0.05
2	653	32.615323983	0.05
2	653	32.653591873	0.05
2	653	32.697013674	0.05
2	655	32.7	0.05
2	655	32.73325175	0.05
2	655	32.79173195	0.05
2	657	32.8	0.05
2	657	32.831660692	0.05
2	657	32.884583823	0.05
2	659	32.9	0.05
2	659	32.925455605	0.05
2	659	32.97453717	0.05
2	661	33	0.05
2	661	33.025414769	0.05
2	663	33.1	0.05
2	663	33.101052921	0.05
2	663	33.150153463	0.05
2	663	33.195237406	0.05
2	665	33.2	0.05
2	665	33.232799877	0.05
2	665	33.268668987	0.05
2	667	33.3	0.05
2	667	33.302085253	0.05
2	667	33.347030032	0.05
2	669	33.4	0.05
2	669	33.402666171	0.05
2	669	33.439269596	0.05
2	669	33.473649707	0.05
2	671	33.5	0.05
2	671	33.533382856	0.05
2	671	33.581616672	0.05
2	673	33.6	0.05
2	673	33.612993673	0.05
2	673	33.648499501	0.05
2	673	33.670193292	0.05
2	673	33.698666031	0.05
2	675	33.7	0.05
2	675	33.732635903	0.05
2	675	33.78096967	0.05
2	677	33.8	0.05
2	677	33.835819638	0.05
2	677	33.883351	0.05
2	679	33.9	0.05
2	679	33.934911277	0.05
2	679	33.99453183	0.05
2	681	34	0.05
2	681	34.069176372	0.05
2	683	34.1	0.05
2	683	34.130146596	0.05
2	683	34.180885909	0.05
2	685	34.2	0.05
2	685	34.251777117	0.05
2	687	34.3	0.05
2	687	34.314236188	0.05
2	687	34.3798057	0.05
2	689	34.4	0.05
2	689	34.453506138	0.05
2	691	34.5	0.05
2	691	34.52661801	0.05
2	691	34.599980707	0.05
2	693	34.6	0.05
2	693	34.67074223	0.05
2	695	34.7	0.05
2	695	34.735400849	0.05
2	695	34.787893593	0.05
2	697	34.8	0.05
2	697	34.817742183	0.05
2	697	34.86191247	0.05
2	697	34.894739846	0.05
2	699	34.9	0.05
2	699	34.947105327	0.05
2	699	34.981271896	0.05
2	701	35	0.05
2	701	35.059758222	0.05
2	703	35.1	0.05
2	703	35.123017467	0.05
2	703	35.166551181	0.05
2	705	35.2	0.05
2	705	35.230111991	0.05
2	705	35.284822411	0.05
2	707	35.3	0.05
2	707	35.356133597	0.05
2	707	35.388545939	0.05
2	709	35.4	0.05
2	709	35.433362607	0.05
2	709	35.489662991	0.05
2	711	35.5	0.05
2	711	35.535902539	0.05
2	711	35.567482609	0.05
2	713	35.6	0.05
2	713	35.603777285	0.05
2	713	35.64717221	0.05
2	715	35.7	0.05
2	715	35.709755442	0.05
2	715	35.741884952	0.05
2	715	35.780637457	0.05
2	717	35.8	0.05
2	717	35.812266552	0.05
2	717	35.838327336	0.05
2	717	35.898016842	0.05
2	719	35.9	0.05
2	719	35.929557286	0.05
2	719	35.973863595	0.05
2	721	36	0.05
2	721	36.01508602	0.05
2	721	36.060889362	0.05
2	721	36.092947954	0.05
2	723	36.1	0.05
2	723	36.129324201	0.05
2	723	36.168944766	0.05
2	725	36.2	0.05
2	725	36.220738217	0.05
2	725	36.263357644	0.05
2	727	36.3	0.05
2	727	36.31879817	0.05
2	727	36.360766149	0.05
2	729	36.4	0.05
2	729	36.432764423	0.05
2	729	36.487915502	0.05
2	731	36.5	0.05
2	731	36.553253183	0.05
2	731	36.584917211	0.05
2	733	36.6	0.05
2	733	36.629225829	0.05
2	733	36.684214901	0.05
2	735	36.7	0.05
2	735	36.733368063	0.05
2	735	36.787095941	0.05
2	737	36.8	0.05
2	737	36.845202614	0.05
2	737	36.887137094	0.05
2	739	36.9	0.05
2	739	36.927008628	0.05
2	739	36.957158447	0.05
2	739	36.99048104	0.05
2	741	37	0.05
2	741	37.024769624	0.05
2	741	37.06169037	0.05
2	743	37.1	0.05
2	743	37.108840433	0.05
2	743	37.158927672	0.05
2	743	37.197016863	0.05
2	745	37.2	0.05
2	745	37.242628561	0.05
2	745	37.265288134	0.05
2	747	37.3	0.05
2	747	37.327255655	0.05
2	747	37.364411462	0.05
2	747	37.385942227	0.05
2	749	37.4	0.05
2	749	37.421091655	0.05
2	749	37.45067282	0.05
2	751	37.5	0.05
2	751	37.502039218	0.05
2	751	37.553335891	0.05
2	751	37.596656335	0.05
2	753	37.6	0.05
2	753	37.637402791	0.05
2	753	37.690687539	0.05
2	755	37.7	0.05
2	755	37.737693074	0.05
2	755	37.790637263	0.05
2	757	37.8	0.05
2	757	37.830230618	0.05
2	757	37.853208047	0.05
2	759	37.9	0.05
2	759	37.917757844	0.05
2	759	37.962492523	0.05
2	761	38	0.05
2	761	38.010886389	0.05
2	761	38.040305251	0.05
2	761	38.0722188	0.05
2	763	38.1	0.05
2	763	38.125516996	0.05
2	763	38.175921481	0.05
2	765	38.2	0.05
2	765	38.216387098	0.05
2	765	38.275376914	0.05
2	767	38.3	0.05
2	767	38.31747034	0.05
2	767	38.373173035	0.05
2	769	38.4	0.05
2	769	38.410469352	0.05
2	769	38.439235466	0.05
2	769	38.467904374	0.05
2	769	38.490251689	0.05
2	771	38.5	0.05
2	771	38.531651825	0.05
2	771	38.553678183	0.05
2	771	38.586004534	0.05
2	773	38.6	0.05
2	773	38.637480378	0.05
2	773	38.671101869	0.05
2	775	38.7	0.05
2	775	38.725093654	0.05
2	775	38.762620401	0.05
2	777	38.8	0.05
2	777	38.808275959	0.05
2	777	38.832115699	0.05
2	777	38.874462938	0.05
2	779	38.9	0.05
2	779	38.924013081	0.05
2	779	38.951546584	0.05
2	781	39	0.05
2	781	39.009365364	0.05
2	781	39.060214774	0.05
2	783	39.1	0.05
2	783	39.105108016	0.05
2	783	39.150421801	0.05
2	785	39.2	0.05
2	785	39.205108072	0.05
2	785	39.249469061	0.05
2	787	39.3	0.05
2	787	39.301846054	0.05
2	787	39.360123336	0.05
2	787	39.395877994	0.05
2	789	39.4	0.05
2	789	39.432504242	0.05
2	789	39.464369351	0.05
2	791	39.5	0.05
2	791	39.52093279	0.05
2	791	39.570023085	0.05
2	793	39.6	0.05
2	793	39.612928002	0.05
2	793	39.647440062	0.05
2	793	39.677510458	0.05
2	795	39.7	0.05
2	795	39.724451658	0.05
2	795	39.76912569	0.05
2	797	39.8	0.05
2	797	39.814664221	0.05
2	797	39.851839998	0.05
2	797	39.893507316	0.05
2	799	39.9	0.05
2	799	39.967701997	0.05
2	801	40	0.05
2	801	40.012560505	0.05
2	801	40.06556699	0.05
2	803	40.1	0.05
2	803	40.104959819	0.05
2	803	40.140651913	0.05
2	803	40.189487936	0.05
2	805	40.2	0.05
2	805	40.226126165	0.05
2	805	40.273451125	0.05
2	807	40.3	0.05
2	807	40.314907508	0.05
2	807	40.365254381	0.05
2	809	40.4	0.05
2	809	40.424601376	0.05
2	811	40.5	0.05
2	813	40.6	0.05
2	813	40.610899123	0.05
2	815	40.7	0.05
2	815	40.780725551	0.05
2	817	40.8	0.05
2	818	40.800719858639	0.05
2	818	40.870266309	0.05
2	820	40.900719858639	0.05
2	820	40.922177271	0.05
2	820	40.973694045	0.045
2	820	40.973694045	0.045
2	822	41.000719858639	0.045108103254556
2	822	41.030740134	0.045228184356
2	822	41.076633759	0.045411758856
2	824	41.100719858639	0.045508103254556
2	824	41.121358229	0.045590656736
2	824	41.191107998	0.045869655812
2	826	41.200719858639	0.045908103254556
2	826	41.268279255	0.04617834084
2	828	41.300719858639	0.046308103254556
2	828	41.349667455	0.04650389364
2	830	41.400719858639	0.046708103254556
2	830	41.42285567	0.0467966465
2	830	41.484168804	0.047041899036
2	832	41.500719858639	0.047108103254556
2	832	41.515269727	0.047166302728
2	832	41.579751333	0.047424229152
2	834	41.600719858639	0.0427572929291
2	834	41.600719858639	0.0427572929291
2	834	41.621354911	0.042839833138544
2	834	41.676404251	0.043060030498544
2	836	41.700719858639	0.0431572929291
2	836	41.742048046	0.043322605678544
2	838	41.800719858639	0.0435572929291
2	838	41.813172922	0.043607105182544
2	838	41.869570512	0.043832695542544
2	840	41.900719858639	0.0439572929291
2	840	41.934809882	0.044093653022544
2	840	41.986256181	0.044299438218544
2	842	42.000719858639	0.0443572929291
2	842	42.072258012	0.044643445542544
2	844	42.100719858639	0.0447572929291
2	844	42.12288143	0.044845939214544
2	844	42.164689322	0.045013170782544
2	846	42.200719858639	0.0451572929291
2	846	42.203372315	0.04065111247909
2	846	42.203372315	0.04065111247909
2	846	42.240802215	0.04080083207909
2	846	42.280091487	0.04095798916709
2	848	42.300719858639	0.041040502653646
2	848	42.304561576	0.04105586952309
2	848	42.352799514	0.04124882127509
2	848	42.391739957	0.04140458304709
2	850	42.400719858639	0.041440502653646
2	850	42.422761115	0.04152866767909
2	850	42.469595986	0.04171600716309
2	852	42.500719858639	0.041840502653646
2	852	42.501184028	0.04184235933109
2	852	42.537472614	0.04198751367509
2	852	42.55999298	0.04207759513909
2	854	42.600719858639	0.042240502653646
2	854	42.615994472	0.04230160110709
2	854	42.661552478	0.04248383313109
2	856	42.700719858639	0.038376452388281
2	856	42.700719858639	0.038376452388281
2	856	42.720660953	0.038456216765725
2	856	42.759223027	0.038610465061725
2	858	42.800719858639	0.038776452388281
2	858	42.812894778	0.038825152065725
2	858	42.86794168	0.039045339673725
2	860	42.900719858639	0.039176452388281
2	860	42.90913234	0.039210102313725
2	860	42.952848096	0.039384965337725
2	862	43.000719858639	0.039576452388281
2	862	43.002512188	0.039583621705725
2	862	43.052043651	0.039781747557725
2	864	43.100719858639	0.039976452388281
2	864	43.102458106	0.039983405377725
2	864	43.147565374	0.040163834449725
2	864	43.196962722	0.040361423841725
2	866	43.200719858639	0.040376452388281
2	866	43.243286476	0.036492046971953
2	866	43.243286476	0.036492046971953
2	866	43.28759834	0.036669294427953
2	868	43.300719858639	0.036721780502509
2	868	43.325214838	0.036819760419953
2	868	43.36937803	0.036996413187953
2	870	43.400719858639	0.037121780502509
2	870	43.431094296	0.037243278251953
2	872	43.500719858639	0.037521780502509
2	872	43.504722251	0.037537790071953
2	872	43.575605607	0.037821323495953
2	874	43.600719858639	0.037921780502509
2	874	43.631490388	0.038044862619953
2	874	43.697560613	0.038309143519953
2	876	43.700719858639	0.038321780502509
2	876	43.766983122	0.038586833555953
2	878	43.800719858639	0.038721780502509
2	878	43.836289777	0.038864060175953
2	880	43.900719858639	0.035209602452258
2	880	43.900719858639	0.035209602452258
2	880	43.903025375	0.035218824517702
2	880	43.970149363	0.035487320469702
2	882	44.000719858639	0.035609602452258
2	882	44.041915623	0.035774385509702
2	884	44.100719858639	0.036009602452258
2	884	44.109362678	0.036044173729702
2	884	44.174450697	0.036304525805702
2	886	44.200719858639	0.036409602452258
2	886	44.237676424	0.036557428713702
2	888	44.300719858639	0.036809602452258
2	888	44.305235692	0.036827665785702
2	888	44.362685241	0.037057463981702
2	890	44.400719858639	0.037209602452258
2	890	44.424413591	0.037304377381702
2	890	44.476941036	0.037514487161702
2	892	44.500719858639	0.037609602452258
2	892	44.520684488	0.033920514872732
2	892	44.520684488	0.033920514872732
2	892	44.572780014	0.034128896976732
2	894	44.600719858639	0.034240656355288
2	894	44.61806585	0.034310040320732
2	894	44.674732273	0.034536706012732
2	896	44.700719858639	0.034640656355288
2	896	44.742184579	0.034806515236732
2	898	44.800719858639	0.035040656355288
2	898	44.808248179	0.035070769636732
2	898	44.876266731	0.035342843844732
2	900	44.900719858639	0.035440656355288
2	900	44.941772117	0.035604865388732
2	902	45.000719858639	0.035840656355288
2	902	45.004815988	0.035857040872732
2	902	45.073373265	0.036131269980732
2	904	45.100719858639	0.036240656355288
2	904	45.134148566	0.036374371184732
2	904	45.189433158	0.032935958597459
2	904	45.189433158	0.032935958597459
2	906	45.200719858639	0.032981105400015
2	906	45.26176482	0.033225285245459
2	908	45.300719858639	0.033381105400015
2	908	45.335141941	0.033518793729459
2	910	45.400719858639	0.033781105400015
2	910	45.409596935	0.033816613705459
2	910	45.470541942	0.034060393733459
2	912	45.500719858639	0.034181105400015
2	912	45.528651276	0.034292831069459
2	912	45.596449944	0.034564025741459
2	914	45.600719858639	0.034581105400015
2	914	45.641349068	0.034743622237459
2	916	45.700719858639	0.034981105400015
2	916	45.719291813	0.035055393217459
2	916	45.782509745	0.035308264945459
2	918	45.800719858639	0.035381105400015
2	918	45.81992458	0.031912131856913
2	918	45.81992458	0.031912131856913
2	918	45.867976981	0.032104341460913
2	920	45.900719858639	0.032235312971469
2	920	45.91924643	0.032309419256913
2	920	45.989940502	0.032592195544913
2	922	46.000719858639	0.032635312971469
2	922	46.047840151	0.032823794140913
2	924	46.100719858639	0.033035312971469
2	924	46.103862344	0.033047882912913
2	924	46.154865165	0.033251894196913
2	926	46.200719858639	0.033435312971469
2	926	46.201053787	0.033436648684913
2	926	46.232922811	0.033564124780913
2	927	46.300632589	0.033834963892913
2	928	46.300719858639	0.033835312971469
2	928	46.33836093	0.033985877256913
2	928	46.37327597	0.034125537416913
2	930	46.400719858639	0.030811781674322
2	930	46.400719858639	0.030811781674322
2	930	46.41195875	0.030856737239766
2	930	46.451459361	0.031014739683766
2	930	46.472526305	0.031099007459766
2	932	46.500719858639	0.031211781674322
2	932	46.501924721	0.031216601123766
2	932	46.557030996	0.031437026223766
2	932	46.592400179	0.031578502955766
2	934	46.600719858639	0.031611781674322
2	934	46.642742366	0.031779871703766
2	934	46.677154958	0.031917522071766
2	936	46.700719858639	0.032011781674322
2	936	46.743286987	0.032182050187766
2	936	46.799858196	0.032408335023766
2	938	46.800719858639	0.032411781674322
2	938	46.841530474	0.032575024135766
2	938	46.894835913	0.032788245891766
2	940	46.900719858639	0.02953060350689
2	940	46.900719858639	0.02953060350689
2	940	46.954683347	0.029746457460334
2	941	46.974101355068	0.029824129492606
2	943	47.000719858639	0.029824129492606
2	943	47.007466452	0.029824129492606
2	943	47.051989735	0.029824129492606
2	945	47.100719858639	0.029824129492606
2	945	47.117090282	0.029824129492606
2	945	47.15943352	0.029824129492606
2	947	47.200719858639	0.029824129492606
2	947	47.20700974	0.029824129492606
2	947	47.26132624	0.029824129492606
2	949	47.300719858639	0.029824129492606
2	949	47.313796214	0.029824129492606
2	949	47.377086082	0.029824129492606
2	951	47.400719858639	0.029824129492606
2	951	47.409653392	0.029824129492606
2	951	47.458002604	0.029824129492606
2	951	47.480623534	0.029824129492606
2	953	47.500719858639	0.029824129492606
2	953	47.539663978	0.029824129492606
2	953	47.581071996	0.029824129492606
2	955	47.600719858639	0.029824129492606
2	955	47.614522241	0.029824129492606
2	955	47.655738212	0.029824129492606
2	955	47.678167209	0.029824129492606
2	957	47.700719858639	0.029824129492606
2	957	47.712738153	0.029824129492606
2	957	47.773872336	0.029824129492606
2	959	47.800719858639	0.029824129492606
2	959	47.828704595	0.029824129492606
2	959	47.891878657	0.029824129492606
2	961	47.900719858639	0.029824129492606
2	961	47.927866196	0.029824129492606
2	961	47.959522842	0.029824129492606
2	963	48.000719858639	0.029824129492606
2	963	48.001200597	0.029824129492606
2	963	48.061930404	0.029824129492606
2	965	48.100719858639	0.029824129492606
2	965	48.120713684	0.029824129492606
2	965	48.157552774	0.029824129492606
2	965	48.178174211	0.029824129492606
2	967	48.200719858639	0.029824129492606
2	967	48.221477594	0.029824129492606
2	967	48.256396157	0.029824129492606
2	969	48.300719858639	0.029824129492606
2	969	48.306554567	0.029824129492606
2	969	48.364576413	0.029824129492606
2	971	48.400719858639	0.029824129492606
2	971	48.408117806	0.029824129492606
2	971	48.462410128	0.029824129492606
2	973	48.500719858639	0.029824129492606
2	973	48.513763323	0.029824129492606
2	973	48.566605091	0.029824129492606
2	975	48.600719858639	0.029824129492606
2	975	48.638484048	0.029824129492606
2	975	48.691761981	0.029824129492606
2	977	48.700719858639	0.029824129492606
2	977	48.738577833	0.029824129492606
2	979	48.800719858639	0.029824129492606
2	979	48.807002534	0.029824129492606
2	979	48.862040826	0.029824129492606
2	981	48.900719858639	0.029824129492606
2	981	48.924550982	0.029824129492606
2	981	48.989147366	0.029824129492606
2	983	49.000719858639	0.029824129492606
2	983	49.031925787	0.029824129492606
2	983	49.080183734	0.029824129492606
2	985	49.100719858639	0.029824129492606
2	985	49.13580588	0.029824129492606
2	985	49.170263425	0.029824129492606
2	985	49.19703489	0.029824129492606
2	987	49.200719858639	0.029824129492606
2	987	49.228382782	0.029824129492606
2	987	49.256568944	0.029824129492606
2	989	49.300719858639	0.029824129492606
2	989	49.303913339	0.029824129492606
2	989	49.336378532	0.029824129492606
2	989	49.365150979	0.029824129492606
2	989	49.396389798	0.029824129492606
2	991	49.400719858639	0.029824129492606
2	991	49.4187116	0.029824129492606
2	991	49.459694485	0.029824129492606
2	993	49.500719858639	0.029824129492606
2	993	49.506292421	0.029824129492606
2	993	49.55206306	0.029824129492606
2	993	49.592411585	0.029824129492606
2	995	49.600719858639	0.029824129492606
2	995	49.639534837	0.029824129492606
2	995	49.688990881	0.029824129492606
2	997	49.700719858639	0.029824129492606
2	997	49.738459252	0.029824129492606
2	999	49.800719858639	0.029824129492606
2	999	49.80261592	0.029824129492606
2	999	49.878671627	0.029824129492606
2	1001	49.900719858639	0.029824129492606
2	1001	49.934780217	0.029824129492606
2	1001	49.970405962	0.029824129492606
2	1003	50.000719858639	0.029824129492606
2	1003	50.038422029	0.029824129492606
2	1003	50.091672256	0.029824129492606
2	1005	50.100719858639	0.029824129492606
2	1005	50.160506037	0.029824129492606
2	1007	50.200719858639	0.029824129492606
2	1007	50.222462299	0.029824129492606
2	1007	50.293615143	0.029824129492606
2	1009	50.300719858639	0.029824129492606
2	1009	50.350505267	0.029824129492606
2	1011	50.400719858639	0.029824129492606
2	1011	50.418963703	0.029824129492606
2	1011	50.45244368	0.029824129492606
2	1013	50.500719858639	0.029824129492606
2	1013	50.516235704	0.029824129492606
2	1013	50.569914024	0.029824129492606
2	1015	50.600719858639	0.029824129492606
2	1015	50.61772419	0.029824129492606
2	1015	50.670083506	0.029824129492606
2	1017	50.700719858639	0.029824129492606
2	1017	50.745213373	0.029824129492606
2	1019	50.800719858639	0.029824129492606
2	1019	50.802182299	0.029824129492606
2	1019	50.871455925	0.029824129492606
2	1021	50.900719858639	0.029824129492606
2	1021	50.936205594	0.029824129492606
2	1023	51.000719858639	0.029824129492606
2	1023	51.0157666	0.029824129492606
2	1023	51.087134479	0.029824129492606
2	1025	51.100719858639	0.029824129492606
2	1025	51.132675775	0.029824129492606
2	1025	51.187646948	0.029824129492606
2	1027	51.200719858639	0.029824129492606
2	1027	51.219963617	0.029824129492606
2	1027	51.265665105	0.029824129492606
2	1029	51.300719858639	0.029824129492606
2	1029	51.310494953	0.029824129492606
2	1029	51.353229644	0.029824129492606
2	1031	51.400719858639	0.029824129492606
2	1031	51.40348063	0.029824129492606
2	1031	51.462952321	0.029824129492606
2	1033	51.500719858639	0.029824129492606
2	1033	51.503355575	0.029824129492606
2	1033	51.540791695	0.029824129492606
2	1033	51.564381386	0.029824129492606
2	1035	51.600719858639	0.029824129492606
2	1035	51.604988442	0.029824129492606
2	1035	51.653029445	0.029824129492606
2	1035	51.688441726	0.029824129492606
2	1037	51.700719858639	0.029824129492606
2	1039	51.800719858639	0.029824129492606
2	1039	51.810015135	0.029824129492606
3	0	0	0.004
3	941	46.974101355068	0
4	0	0	0.004
4	461	23.08057828677	0
5	0	0	0.004
5	941	46.974101355068	0

