version 2
run Mysterio_ex2-0-20210915-18:40:56-18851
attr configname Mysterio_ex2
attr datetime 20210915-18:40:56
attr experiment Mysterio_ex2
attr inifile omnetpp.ini
attr iterationvars ""
attr iterationvarsf ""
attr measurement ""
attr network MysterioCommunication2
attr processid 18851
attr repetition 0
attr replication #0
attr resultdir results
attr runnumber 0
attr seedset 0
param *.host[*].mobility.numeroDrones 2
param *.numHosts 2
param *.host[*].osgModel "\"3d/drone.ive.100.scale.0,0,90.rot\""
param *.basestation.osgModel "\"3d/car.ive.50.scale.0,0,90.rot\""
param *.canvasVisualizer.energyStorageVisualizer.displayEnergyStorages true
param *.host[*].hasStatus true
param *.host[*].energyStorage.typename "\"SimpleEpEnergyStorage\""
param *.host[*].wlan[*].radio.energyConsumer.typename "\"StateBasedEpEnergyConsumer\""
param *.host[*].energyManagement.typename "\"SimpleEpEnergyManagement\""
param *.host[*].energyStorage.nominalCapacity 0.05J
param *.host[*].energyManagement.nodeShutdownCapacity "0.1 * energyStorage.nominalCapacity"
param *.host[*].energyManagement.nodeStartCapacity "0.5 * energyStorage.nominalCapacity"
param *.host[*].energyStorage.initialCapacity 0.05J
param *.host[*].energyGenerator.typename "\"AlternatingEpEnergyGenerator\""
param *.host[*].energyGenerator.powerGeneration 4mW
param *.host[*].energyGenerator.sleepInterval exponential(25s)
param *.host[*].energyGenerator.generationInterval exponential(25s)
param *.host[*].mobility.typename "\"UAVMobility\""
param *.host[*].mobility.changeInterval 1s
param *.host[*].mobility.initialMovementHeading "uniform(0deg, 360deg)"
param *.host[*].mobility.initialMovementElevation "uniform(-90deg, 90deg)"
param *.host[*].mobility.angleDelta uniform(-10deg,10deg)
param *.host[*].mobility.rotationAxisAngle uniform(-10deg,10deg)
param *.host[*].mobility.speed uniform(10mps,20mps)
param *.host[*].mobility.faceForward false
param *.host[*].mobility.initialX 220m
param *.host[*].mobility.initialY 220m
param *.host[*].mobility.initialZ 80m
param *.visualizer.osgVisualizer.typename "\"IntegratedOsgVisualizer\""
param *.visualizer.osgVisualizer.sceneVisualizer.clearColor "\"skyblue\""
param *.visualizer.osgVisualizer.sceneVisualizer.sceneImage "\"showcases/desert\""
param *.visualizer.osgVisualizer.sceneVisualizer.sceneImageSize 5000m
param *.visualizer.osgVisualizer.sceneVisualizer.axisLength 1000m
param *.visualizer.osgVisualizer.sceneVisualizer.sceneMinX -2000m
param *.visualizer.osgVisualizer.sceneVisualizer.sceneMinY -2000m
param *.visualizer.osgVisualizer.sceneVisualizer.sceneMinZ 0m
param *.visualizer.osgVisualizer.sceneVisualizer.sceneMaxX 3000m
param *.visualizer.osgVisualizer.sceneVisualizer.sceneMaxY 3000m
param *.visualizer.osgVisualizer.sceneVisualizer.sceneMaxZ 1000m
param *.visualizer.osgVisualizer.networkNodeVisualizer.displayModuleName false
param *.visualizer.*.mobilityVisualizer.displayMobility true
param *.visualizer.*.mobilityVisualizer.displayPositions true
param *.visualizer.*.mobilityVisualizer.displayOrientations false
param *.visualizer.*.mobilityVisualizer.displayVelocities true
param *.visualizer.*.mobilityVisualizer.displayMovementTrails true
param *.visualizer.*.mobilityVisualizer.animationSpeed 3
param **.constraintAreaMinX 0m
param **.constraintAreaMinY 0m
param **.constraintAreaMinZ 0m
param **.constraintAreaMaxX 1000m
param **.constraintAreaMaxY 1000m
param **.constraintAreaMaxZ 1000m
param **.networkConfiguratorModule "\"\""

vector 0 MysterioCommunication2.host[0].energyStorage residualEnergyCapacity:vector ETV
attr interpolationmode linear
attr source residualEnergyCapacityChanged
attr title "Residual energy capacity, vector"
vector 1 MysterioCommunication2.host[0].energyGenerator powerGeneration:vector ETV
attr interpolationmode sample-hold
attr source powerGenerationChanged
attr title "Power generation, vector"
vector 2 MysterioCommunication2.host[1].energyStorage residualEnergyCapacity:vector ETV
attr interpolationmode linear
attr source residualEnergyCapacityChanged
attr title "Residual energy capacity, vector"
vector 3 MysterioCommunication2.host[1].energyGenerator powerGeneration:vector ETV
attr interpolationmode sample-hold
attr source powerGenerationChanged
attr title "Power generation, vector"
vector 4 MysterioCommunication2.host[0].energyStorage powerGeneration:vector ETV
attr interpolationmode sample-hold
attr source powerGenerationChanged
attr title "Power generation, vector"
vector 5 MysterioCommunication2.host[1].energyStorage powerGeneration:vector ETV
attr interpolationmode sample-hold
attr source powerGenerationChanged
attr title "Power generation, vector"
0	0	0	0.05
0	0	0.1	0.05
0	2	0.14865997	0.05
0	3	0.2	0.05
0	5	0.3	0.05
0	7	0.4	0.05
0	8	0.447734239	0.05
0	9	0.5	0.05
0	11	0.6	0.05
0	13	0.7	0.05
0	15	0.8	0.05
0	17	0.9	0.05
0	19	1	0.05
0	20	1.088413612	0.05
0	21	1.1	0.05
0	23	1.2	0.05
0	25	1.3	0.05
0	27	1.4	0.05
0	29	1.5	0.05
0	30	1.560596344	0.05
0	31	1.6	0.05
0	33	1.7	0.05
0	35	1.8	0.05
0	37	1.9	0.05
0	38	1.976157178	0.05
0	39	2	0.05
0	41	2.1	0.05
0	43	2.2	0.05
0	44	2.253026422	0.05
0	45	2.3	0.05
0	47	2.4	0.05
0	49	2.5	0.05
0	50	2.543786188	0.05
0	51	2.6	0.05
0	53	2.7	0.05
0	55	2.8	0.05
0	57	2.9	0.05
0	59	3	0.05
0	61	3.1	0.05
0	62	3.154337311	0.05
0	63	3.2	0.05
0	65	3.3	0.05
0	67	3.4	0.05
0	69	3.5	0.05
0	71	3.6	0.05
0	73	3.7	0.05
0	74	3.784696219	0.05
0	75	3.8	0.05
0	77	3.9	0.05
0	79	4	0.05
0	81	4.1	0.05
0	83	4.2	0.05
0	85	4.3	0.05
0	86	4.31136937	0.05
0	87	4.4	0.05
0	89	4.5	0.05
0	90	4.551233917	0.05
0	91	4.6	0.05
0	93	4.7	0.05
0	95	4.8	0.05
0	97	4.9	0.05
0	98	4.971388309	0.05
0	99	5	0.05
0	101	5.1	0.05
0	103	5.2	0.05
0	104	5.229225124	0.05
0	105	5.3	0.05
0	107	5.4	0.05
0	109	5.5	0.05
0	111	5.6	0.05
0	113	5.7	0.05
0	115	5.8	0.05
0	117	5.9	0.05
0	118	5.944644562	0.05
0	119	6	0.05
0	121	6.1	0.05
0	123	6.2	0.05
0	125	6.3	0.05
0	127	6.4	0.05
0	129	6.5	0.05
0	130	6.543111229	0.05
0	131	6.6	0.05
0	133	6.7	0.05
0	135	6.8	0.05
0	137	6.9	0.05
0	139	7	0.05
0	140	7.043252614	0.05
0	141	7.1	0.05
0	143	7.2	0.05
0	145	7.3	0.05
0	147	7.4	0.05
0	149	7.5	0.05
0	150	7.511504128	0.05
0	151	7.6	0.05
0	153	7.7	0.05
0	154	7.732944229	0.05
0	155	7.8	0.05
0	157	7.9	0.05
0	159	8	0.05
0	161	8.1	0.05
0	163	8.2	0.05
0	164	8.202809677	0.05
0	165	8.3	0.05
0	167	8.4	0.05
0	169	8.5	0.05
0	171	8.6	0.05
0	172	8.689940218	0.05
0	173	8.7	0.05
0	175	8.8	0.05
0	177	8.9	0.05
0	179	9	0.05
0	181	9.1	0.05
0	183	9.2	0.05
0	184	9.265806424	0.05
0	185	9.3	0.05
0	187	9.4	0.05
0	189	9.5	0.05
0	190	9.512281639	0.05
0	191	9.6	0.05
0	193	9.7	0.05
0	195	9.8	0.05
0	197	9.9	0.05
0	198	9.988156378	0.05
0	199	10	0.05
0	201	10.1	0.05
0	203	10.2	0.05
0	204	10.282950646	0.05
0	205	10.3	0.05
0	207	10.4	0.05
0	209	10.5	0.05
0	211	10.6	0.05
0	213	10.7	0.05
0	214	10.736746411	0.05
0	215	10.8	0.05
0	217	10.9	0.05
0	219	11	0.05
0	221	11.1	0.05
0	223	11.2	0.05
0	224	11.242235629	0.05
0	225	11.3	0.05
0	227	11.4	0.05
0	229	11.5	0.05
0	231	11.6	0.05
0	233	11.7	0.05
0	234	11.777731003	0.05
0	235	11.8	0.05
0	237	11.9	0.05
0	239	12	0.05
0	241	12.1	0.05
0	243	12.2	0.05
0	244	12.289988674	0.05
0	245	12.3	0.05
0	247	12.4	0.05
0	249	12.5	0.05
0	250	12.541539553	0.05
0	251	12.6	0.05
0	253	12.7	0.05
0	255	12.8	0.05
0	257	12.9	0.05
0	259	13	0.05
0	260	13.068761011	0.05
0	261	13.1	0.05
0	263	13.2	0.05
0	265	13.3	0.05
0	267	13.4	0.05
0	269	13.5	0.05
0	271	13.6	0.05
0	273	13.7	0.05
0	274	13.788229531	0.05
0	275	13.8	0.05
0	277	13.9	0.05
0	279	14	0.05
0	281	14.1	0.05
0	283	14.2	0.05
0	285	14.3	0.05
0	286	14.364259135	0.05
0	287	14.4	0.05
0	289	14.5	0.05
0	291	14.6	0.05
0	293	14.7	0.05
0	295	14.8	0.05
0	297	14.9	0.05
0	299	15	0.05
0	300	15.078865747	0.05
0	301	15.1	0.05
0	303	15.2	0.05
0	305	15.3	0.05
0	307	15.4	0.05
0	309	15.5	0.05
0	311	15.6	0.05
0	312	15.627461029	0.05
0	313	15.7	0.05
0	315	15.8	0.05
0	317	15.9	0.05
0	319	16	0.05
0	321	16.1	0.05
0	323	16.2	0.05
0	324	16.237119037	0.05
0	325	16.3	0.05
0	327	16.4	0.05
0	329	16.5	0.05
0	331	16.6	0.05
0	332	16.693005649	0.05
0	333	16.7	0.05
0	335	16.8	0.05
0	337	16.9	0.05
0	338	16.992422296	0.05
0	339	17	0.05
0	341	17.1	0.05
0	343	17.2	0.05
0	344	17.285959387	0.05
0	345	17.3	0.05
0	347	17.4	0.05
0	349	17.5	0.05
0	351	17.6	0.05
0	353	17.7	0.05
0	355	17.8	0.05
0	356	17.807699899	0.05
0	357	17.9	0.05
0	359	18	0.05
0	361	18.1	0.05
0	363	18.2	0.05
0	365	18.3	0.05
0	366	18.321521008	0.05
0	367	18.4	0.05
0	369	18.5	0.05
0	371	18.6	0.05
0	373	18.7	0.05
0	374	18.772877839	0.05
0	375	18.8	0.05
0	377	18.9	0.05
0	379	19	0.05
0	380	19.049469901	0.05
0	381	19.1	0.05
0	383	19.2	0.05
0	385	19.3	0.05
0	387	19.4	0.05
0	389	19.5	0.05
0	391	19.6	0.05
0	393	19.7	0.05
0	394	19.77581149	0.05
0	395	19.8	0.05
0	397	19.9	0.05
0	399	20	0.05
0	401	20.1	0.05
0	403	20.2	0.05
0	404	20.26774975	0.05
0	405	20.3	0.05
0	407	20.4	0.05
0	409	20.5	0.05
0	411	20.6	0.05
0	413	20.7	0.05
0	415	20.8	0.05
0	417	20.9	0.05
0	418	20.999791132	0.05
0	419	21	0.05
0	421	21.1	0.05
0	423	21.2	0.05
0	425	21.3	0.05
0	427	21.4	0.05
0	428	21.439351141	0.05
0	429	21.5	0.05
0	431	21.6	0.05
0	433	21.7	0.05
0	434	21.732314923	0.05
0	435	21.8	0.05
0	437	21.9	0.05
0	439	22	0.05
0	441	22.1	0.05
0	443	22.2	0.05
0	444	22.270489996	0.05
0	445	22.3	0.05
0	447	22.4	0.05
0	449	22.5	0.05
0	451	22.6	0.05
0	453	22.7	0.05
0	455	22.8	0.05
0	456	22.828024399	0.05
0	457	22.9	0.05
0	459	23	0.05
0	461	23.08057828677	0.05
0	462	23.1	0.05
0	464	23.2	0.05
0	466	23.3	0.05
0	468	23.4	0.05
0	469	23.436193519	0.05
0	470	23.5	0.05
0	472	23.6	0.05
0	474	23.7	0.05
0	476	23.8	0.0495
0	476	23.8	0.0495
0	478	23.9	0.0495
0	480	24	0.0495
0	481	24.025412575	0.0495
0	482	24.1	0.0495
0	484	24.2	0.0495
0	485	24.282428017	0.0495
0	486	24.3	0.0495
0	488	24.4	0.0495
0	490	24.5	0.0495
0	492	24.6	0.0495
0	494	24.7	0.0495
0	496	24.8	0.0495
0	497	24.819010153	0.0495
0	498	24.9	0.0495
0	500	25	0.0495
0	502	25.1	0.0495
0	504	25.195065580817	0.049005
0	504	25.195065580817	0.049005
0	505	25.2	0.049024737676732
0	507	25.3	0.049424737676732
0	509	25.318815580817	0.0495
0	509	25.360892887	0.049668309224732
0	510	25.4	0.049824737676732
0	512	25.443815580817	0.05
0	513	25.5	0.05
0	515	25.6	0.05
0	517	25.7	0.05
0	519	25.8	0.05
0	521	25.9	0.05
0	522	25.971327295	0.05
0	523	26	0.05
0	525	26.1	0.05
0	527	26.2	0.05
0	529	26.3	0.05
0	531	26.4	0.05
0	533	26.5	0.05
0	534	26.51770543	0.05
0	535	26.6	0.05
0	537	26.7	0.05
0	539	26.8	0.05
0	541	26.9	0.05
0	543	27	0.05
0	544	27.03744148	0.05
0	545	27.1	0.05
0	547	27.2	0.05
0	549	27.3	0.05
0	551	27.4	0.05
0	553	27.5	0.05
0	554	27.599214481	0.05
0	555	27.6	0.05
0	557	27.7	0.05
0	559	27.8	0.05
0	561	27.9	0.05
0	563	28	0.05
0	565	28.1	0.05
0	566	28.152919039	0.05
0	567	28.2	0.05
0	569	28.3	0.05
0	571	28.4	0.05
0	573	28.5	0.05
0	575	28.6	0.05
0	577	28.7	0.05
0	579	28.8	0.05
0	580	28.826308882	0.05
0	581	28.9	0.05
0	583	29	0.05
0	585	29.1	0.05
0	587	29.2	0.05
0	589	29.3	0.05
0	590	29.35109023	0.05
0	591	29.4	0.05
0	593	29.5	0.05
0	595	29.6	0.05
0	597	29.7	0.05
0	599	29.8	0.05
0	600	29.826241741	0.05
0	601	29.9	0.05
0	603	30	0.05
0	604	30.086034898	0.05
0	605	30.1	0.05
0	607	30.2	0.05
0	609	30.3	0.05
0	611	30.4	0.05
0	613	30.5	0.05
0	615	30.6	0.05
0	617	30.7	0.05
0	618	30.710267446	0.05
0	619	30.8	0.05
0	621	30.9	0.05
0	623	31	0.05
0	625	31.1	0.05
0	627	31.2	0.05
0	629	31.3	0.05
0	630	31.329324406	0.05
0	631	31.4	0.05
0	633	31.5	0.05
0	635	31.6	0.05
0	637	31.7	0.05
0	639	31.8	0.05
0	641	31.9	0.05
0	643	32	0.05
0	645	32.1	0.05
0	646	32.175533074	0.05
0	647	32.2	0.05
0	649	32.3	0.05
0	651	32.4	0.05
0	653	32.5	0.05
0	655	32.6	0.05
0	657	32.7	0.05
0	659	32.8	0.05
0	660	32.823459937	0.05
0	661	32.9	0.05
0	663	33	0.05
0	665	33.1	0.05
0	667	33.2	0.05
0	669	33.3	0.05
0	670	33.38084368	0.05
0	671	33.4	0.05
0	673	33.5	0.05
0	675	33.6	0.05
0	677	33.7	0.05
0	679	33.8	0.05
0	681	33.9	0.05
0	682	33.936034471	0.05
0	683	34	0.05
0	685	34.1	0.05
0	687	34.2	0.05
0	689	34.3	0.05
0	691	34.4	0.05
0	693	34.5	0.05
0	694	34.598641726	0.05
0	695	34.6	0.05
0	697	34.7	0.05
0	699	34.8	0.05
0	701	34.9	0.05
0	703	35	0.05
0	705	35.1	0.05
0	707	35.2	0.05
0	708	35.246682526	0.05
0	709	35.3	0.05
0	711	35.4	0.05
0	713	35.5	0.05
0	715	35.6	0.05
0	717	35.7	0.05
0	719	35.8	0.05
0	720	35.820919027	0.05
0	721	35.9	0.05
0	723	36	0.05
0	725	36.1	0.05
0	727	36.2	0.05
0	729	36.3	0.05
0	731	36.4	0.05
0	732	36.433946917	0.05
0	733	36.5	0.05
0	735	36.6	0.05
0	737	36.7	0.05
0	739	36.8	0.05
0	741	36.9	0.05
0	743	37	0.05
0	744	37.049148793	0.05
0	745	37.1	0.05
0	747	37.2	0.05
0	749	37.3	0.05
0	751	37.4	0.05
0	753	37.5	0.05
0	754	37.580576626	0.05
0	755	37.6	0.05
0	757	37.7	0.05
0	759	37.8	0.05
0	761	37.9	0.05
0	763	38	0.05
0	764	38.096356018	0.05
0	765	38.1	0.05
0	767	38.2	0.05
0	769	38.3	0.05
0	771	38.4	0.05
0	773	38.5	0.05
0	775	38.6	0.05
0	776	38.631456031	0.05
0	777	38.7	0.05
0	779	38.8	0.05
0	781	38.9	0.05
0	783	39	0.05
0	785	39.1	0.05
0	786	39.140448421	0.05
0	787	39.2	0.05
0	789	39.3	0.05
0	791	39.399327674375	0.05
0	792	39.4	0.05
0	794	39.5	0.0495
0	794	39.5	0.0495
0	795	39.585388411	0.0495
0	796	39.6	0.0495
0	798	39.7	0.0495
0	800	39.8	0.0495
0	802	39.9	0.0495
0	804	40	0.0495
0	805	40.09210006	0.0495
0	806	40.1	0.0495
0	808	40.2	0.0495
0	810	40.3	0.0495
0	812	40.4	0.0495
0	814	40.5	0.0495
0	815	40.592393722	0.0495
0	816	40.6	0.0495
0	818	40.7	0.0495
0	820	40.8	0.0495
0	822	40.9	0.049005
0	822	40.9	0.049005
0	824	41	0.049005
0	825	41.03772106	0.049005
0	826	41.1	0.049005
0	828	41.2	0.049005
0	830	41.3	0.049005
0	832	41.4	0.049005
0	834	41.5	0.049005
0	835	41.552864941	0.049005
0	836	41.6	0.049005
0	838	41.7	0.049005
0	840	41.8	0.049005
0	842	41.9	0.049005
0	843	41.969639353	0.049005
0	844	42	0.049005
0	846	42.1	0.049005
0	848	42.2	0.049005
0	849	42.26806315	0.04851495
0	849	42.26806315	0.04851495
0	850	42.3	0.04851495
0	852	42.4	0.04851495
0	854	42.5	0.04851495
0	856	42.6	0.04851495
0	858	42.7	0.04851495
0	859	42.720739501	0.04851495
0	860	42.8	0.04851495
0	862	42.9	0.04851495
0	864	43	0.04851495
0	866	43.1	0.04851495
0	867	43.138293709	0.04851495
0	868	43.2	0.04851495
0	870	43.3	0.04851495
0	872	43.4	0.04851495
0	874	43.5	0.04851495
0	876	43.6	0.04851495
0	877	43.695494233	0.0480298005
0	877	43.695494233	0.0480298005
0	878	43.7	0.0480298005
0	880	43.8	0.0480298005
0	882	43.9	0.0480298005
0	884	44	0.0480298005
0	886	44.1	0.0480298005
0	888	44.2	0.0480298005
0	890	44.3	0.0480298005
0	891	44.342706511	0.0480298005
0	892	44.4	0.0480298005
0	894	44.5	0.0480298005
0	896	44.6	0.0480298005
0	898	44.7	0.0480298005
0	900	44.8	0.0480298005
0	902	44.9	0.0480298005
0	903	44.96772568	0.0480298005
0	904	45	0.0480298005
0	906	45.1	0.047549502495
0	906	45.1	0.047549502495
0	908	45.2	0.047549502495
0	910	45.3	0.047549502495
0	912	45.4	0.047549502495
0	914	45.5	0.047549502495
0	915	45.525385018	0.047549502495
0	916	45.6	0.047549502495
0	918	45.7	0.047549502495
0	920	45.8	0.047549502495
0	922	45.9	0.047549502495
0	924	46	0.047549502495
0	926	46.1	0.047549502495
0	928	46.2	0.047549502495
0	930	46.3	0.047549502495
0	932	46.4	0.047549502495
0	934	46.5	0.047549502495
0	935	46.520273083	0.047549502495
0	936	46.6	0.04707400747005
0	936	46.6	0.04707400747005
0	938	46.7	0.04707400747005
0	940	46.8	0.04707400747005
0	942	46.9	0.04707400747005
0	945	47	0.04707400747005
0	947	47.1	0.04707400747005
0	948	47.191011808	0.04707400747005
0	949	47.2	0.04707400747005
0	951	47.3	0.04707400747005
0	953	47.4	0.04707400747005
0	955	47.5	0.04707400747005
0	957	47.6	0.04707400747005
0	958	47.686129627	0.04707400747005
0	959	47.7	0.04707400747005
0	961	47.8	0.04707400747005
0	963	47.9	0.04707400747005
0	965	48	0.04707400747005
0	967	48.1	0.04707400747005
0	969	48.2	0.04707400747005
0	970	48.280317196	0.04707400747005
0	971	48.3	0.04707400747005
0	973	48.4	0.04707400747005
0	975	48.5	0.04707400747005
0	977	48.6	0.04707400747005
0	979	48.7	0.04707400747005
0	981	48.8	0.04707400747005
0	982	48.89092747	0.04707400747005
0	983	48.9	0.04707400747005
0	985	49	0.04707400747005
0	987	49.1	0.04707400747005
0	989	49.2	0.04707400747005
0	991	49.3	0.04707400747005
0	992	49.301810275	0.04707400747005
0	993	49.4	0.04707400747005
0	995	49.5	0.04707400747005
0	996	49.566661135	0.04707400747005
0	997	49.6	0.04707400747005
0	999	49.7	0.04707400747005
0	1001	49.8	0.04707400747005
0	1002	49.826959192	0.04707400747005
0	1003	49.9	0.04707400747005
0	1005	50	0.04707400747005
0	1007	50.1	0.04707400747005
0	1009	50.2	0.04707400747005
0	1010	50.253618514	0.04707400747005
0	1011	50.3	0.04707400747005
0	1013	50.4	0.04707400747005
0	1015	50.5	0.04707400747005
0	1016	50.523964153	0.04707400747005
0	1017	50.6	0.04707400747005
0	1020	50.7	0.04660326739535
0	1020	50.7	0.04660326739535
0	1022	50.8	0.04660326739535
0	1024	50.9	0.04660326739535
0	1025	50.999749486	0.04660326739535
0	1026	51	0.04660326739535
0	1028	51.1	0.04660326739535
0	1030	51.2	0.04660326739535
0	1032	51.3	0.04660326739535
0	1034	51.4	0.04660326739535
0	1034	51.462445726	0.04660326739535
0	1036	51.5	0.04660326739535
0	1038	51.6	0.04660326739535
0	1040	51.7	0.04660326739535
0	1042	51.8	0.04660326739535
0	1043	51.888765913	0.04660326739535
0	1044	51.9	0.04660326739535
0	1046	52	0.04660326739535
0	1048	52.1	0.046137234721396
0	1048	52.1	0.046137234721396
0	1048	52.135806871	0.046137234721396
0	1050	52.2	0.046137234721396
0	1052	52.3	0.046137234721396
0	1054	52.4	0.046137234721396
0	1056	52.5	0.046137234721396
0	1056	52.555373599	0.046137234721396
0	1058	52.6	0.046137234721396
0	1060	52.7	0.046137234721396
0	1062	52.8	0.046137234721396
0	1064	52.9	0.046137234721396
0	1066	53	0.046137234721396
0	1067	53.090165587	0.046137234721396
0	1068	53.1	0.046137234721396
0	1070	53.2	0.046137234721396
0	1072	53.3	0.046137234721396
0	1072	53.348375269	0.046137234721396
0	1074	53.4	0.045675862374182
0	1074	53.4	0.045675862374182
0	1076	53.5	0.045675862374182
0	1078	53.6	0.045675862374182
0	1080	53.7	0.045675862374182
0	1080	53.784282142	0.045675862374182
0	1082	53.8	0.045675862374182
0	1084	53.9	0.045675862374182
0	1086	54	0.045675862374182
0	1086	54.054894037	0.045675862374182
0	1088	54.1	0.045675862374182
0	1090	54.2	0.045675862374182
0	1092	54.3	0.045675862374182
0	1092	54.341479549	0.045675862374182
0	1094	54.4	0.045675862374182
0	1096	54.5	0.045675862374182
0	1098	54.59394677729	0.045675862374182
0	1099	54.6	0.045700075265022
0	1099	54.627181351	0.045808800669022
0	1100	54.674981183744	0.04554
0	1100	54.674981183744	0.04554
0	1102	54.7	0.045640075265024
0	1104	54.789981183744	0.046
0	1105	54.8	0.046040075265024
0	1107	54.9	0.046440075265024
0	1108	54.914981183744	0.0465
0	1110	55	0.046840075265024
0	1111	55.039981183744	0.047
0	1111	55.062693193	0.047090848037024
0	1113	55.1	0.047240075265024
0	1114	55.164981183744	0.0475
0	1116	55.2	0.047640075265024
0	1118	55.289981183744	0.048
0	1119	55.3	0.048040075265024
0	1121	55.4	0.048440075265024
0	1122	55.414981183744	0.0485
0	1124	55.5	0.048840075265024
0	1125	55.539981183744	0.049
0	1127	55.6	0.049240075265024
0	1127	55.60570726	0.049262904305024
0	1128	55.664981183744	0.0495
0	1130	55.7	0.049143674512374
0	1130	55.7	0.049143674512374
0	1132	55.789981183744	0.05
0	1133	55.8	0.05
0	1135	55.9	0.05
0	1137	56	0.05
0	1139	56.1	0.05
0	1141	56.2	0.05
0	1143	56.3	0.05
0	1144	56.389337422	0.05
0	1145	56.4	0.05
0	1147	56.5	0.05
0	1149	56.6	0.05
0	1151	56.7	0.05
0	1152	56.769634267061	0.05
0	1154	56.869634267061	0.05
0	1156	56.969634267061	0.05
0	1157	56.991523324	0.05
0	1158	57.069634267061	0.05
0	1160	57.169634267061	0.0495
0	1160	57.169634267061	0.0495
0	1162	57.269634267061	0.0499
0	1164	57.369634267061	0.05
0	1166	57.469634267061	0.05
0	1167	57.514978843	0.05
0	1168	57.569634267061	0.05
0	1170	57.669634267061	0.05
0	1172	57.769634267061	0.05
0	1174	57.869634267061	0.05
0	1175	57.946351159	0.05
0	1176	57.969634267061	0.05
0	1178	58.069634267061	0.05
0	1180	58.169634267061	0.05
0	1182	58.269634267061	0.05
0	1184	58.369634267061	0.05
0	1185	58.45641235	0.05
0	1186	58.469634267061	0.05
0	1188	58.569634267061	0.0495
0	1188	58.569634267061	0.0495
0	1190	58.669634267061	0.0499
0	1192	58.769634267061	0.05
0	1194	58.869634267061	0.05
0	1196	58.969634267061	0.05
0	1197	58.988329378	0.05
0	1198	59.069634267061	0.05
0	1200	59.169634267061	0.05
0	1202	59.269634267061	0.05
0	1204	59.369634267061	0.05
0	1205	59.406096163	0.05
0	1206	59.469634267061	0.05
0	1208	59.569634267061	0.05
0	1210	59.669634267061	0.05
0	1210	59.678525149	0.05
0	1212	59.769634267061	0.05
0	1214	59.869634267061	0.05
0	1215	59.951909221	0.0495
0	1215	59.951909221	0.0495
0	1216	59.969634267061	0.049570900184244
0	1218	60.069634267061	0.049970900184244
0	1220	60.169634267061	0.05
0	1222	60.269634267061	0.05
0	1224	60.369634267061	0.05
0	1225	60.459309448	0.05
0	1226	60.469634267061	0.05
0	1228	60.569634267061	0.05
0	1230	60.669634267061	0.05
0	1232	60.769634267061	0.05
0	1234	60.869634267061	0.05
0	1234	60.87472978	0.05
0	1236	60.969634267061	0.05
0	1238	61.069634267061	0.05
0	1240	61.169634267061	0.05
0	1243	61.269634267061	0.05
0	1244	61.306182598	0.05
0	1246	61.369634267061	0.05
0	1249	61.469634267061	0.05
0	1251	61.569634267061	0.05
0	1253	61.669634267061	0.05
0	1254	61.759559869	0.05
0	1255	61.769634267061	0.05
0	1257	61.869634267061	0.05
0	1259	61.969634267061	0.05
0	1261	62.069634267061	0.05
0	1263	62.169634267061	0.05
0	1264	62.250134656	0.05
0	1265	62.269634267061	0.05
0	1267	62.369634267061	0.05
0	1269	62.469634267061	0.05
0	1270	62.529548023	0.05
0	1271	62.569634267061	0.05
0	1273	62.669634267061	0.05
0	1275	62.769634267061	0.05
0	1277	62.869634267061	0.05
0	1279	62.969634267061	0.05
0	1280	63.017783377	0.05
0	1281	63.069634267061	0.05
0	1283	63.169634267061	0.05
0	1285	63.269634267061	0.05
0	1287	63.369634267061	0.05
0	1289	63.469634267061	0.05
0	1290	63.53182498	0.05
0	1291	63.569634267061	0.05
0	1293	63.669634267061	0.05
0	1295	63.769634267061	0.05
0	1297	63.869634267061	0.05
0	1299	63.969634267061	0.05
0	1300	63.993614611	0.05
0	1301	64.069634267061	0.05
0	1303	64.169634267061	0.05
0	1304	64.228451893	0.05
0	1305	64.269634267061	0.05
0	1307	64.369634267061	0.05
0	1309	64.469634267061	0.05
0	1311	64.569634267061	0.05
0	1313	64.669634267061	0.05
0	1314	64.756865929	0.05
0	1315	64.769634267061	0.05
0	1317	64.869634267061	0.05
0	1319	64.969634267061	0.05
0	1321	65.069634267061	0.05
0	1323	65.169634267061	0.05
0	1324	65.196876019	0.05
0	1325	65.269634267061	0.05
0	1327	65.369634267061	0.05
0	1329	65.469634267061	0.05
0	1331	65.569634267061	0.05
0	1332	65.659907452	0.05
0	1333	65.669634267061	0.05
0	1335	65.769634267061	0.05
0	1337	65.869634267061	0.05
0	1339	65.969634267061	0.05
0	1341	66.069634267061	0.05
0	1342	66.128854336	0.05
0	1343	66.169634267061	0.05
0	1345	66.269634267061	0.05
0	1347	66.369634267061	0.05
0	1349	66.469634267061	0.05
0	1351	66.569634267061	0.05
0	1353	66.669634267061	0.05
0	1353	66.682224514	0.05
0	1355	66.769634267061	0.05
0	1357	66.869634267061	0.05
0	1359	66.969634267061	0.05
0	1361	67.069634267061	0.05
0	1363	67.169634267061	0.05
0	1365	67.269634267061	0.05
0	1366	67.344093472	0.05
0	1367	67.369634267061	0.05
0	1369	67.469634267061	0.05
0	1371	67.569634267061	0.05
0	1373	67.669634267061	0.05
0	1375	67.769634267061	0.05
0	1377	67.869634267061	0.05
0	1379	67.969634267061	0.05
0	1380	67.992827875	0.05
0	1381	68.069634267061	0.05
0	1383	68.169634267061	0.05
0	1385	68.269634267061	0.05
0	1387	68.369634267061	0.05
0	1389	68.469634267061	0.05
0	1390	68.528485345	0.05
0	1391	68.569634267061	0.05
0	1393	68.669634267061	0.05
0	1395	68.769634267061	0.05
0	1397	68.869634267061	0.05
0	1399	68.969634267061	0.05
0	1401	69.069634267061	0.05
0	1402	69.085996315	0.05
0	1403	69.169634267061	0.05
0	1405	69.269634267061	0.05
0	1407	69.369634267061	0.05
0	1409	69.469634267061	0.05
0	1411	69.569634267061	0.05
0	1411	69.571266106	0.05
0	1413	69.669634267061	0.05
0	1415	69.769634267061	0.05
0	1417	69.869634267061	0.05
0	1419	69.969634267061	0.05
0	1420	70.036473388	0.05
0	1421	70.069634267061	0.05
0	1423	70.169634267061	0.05
0	1425	70.269634267061	0.05
0	1426	70.301593111	0.05
0	1427	70.369634267061	0.05
0	1429	70.469634267061	0.05
0	1430	70.538525698	0.05
0	1431	70.569634267061	0.05
0	1433	70.669634267061	0.05
0	1435	70.769634267061	0.05
0	1436	70.807146826	0.05
0	1437	70.869634267061	0.05
0	1439	70.969634267061	0.05
0	1441	71.069634267061	0.05
0	1443	71.169634267061	0.05
0	1445	71.269634267061	0.05
0	1446	71.288907079	0.05
0	1447	71.369634267061	0.05
0	1449	71.469634267061	0.05
0	1451	71.569634267061	0.05
0	1453	71.669634267061	0.05
0	1454	71.744063359	0.05
0	1455	71.769634267061	0.05
0	1457	71.869634267061	0.05
0	1459	71.969634267061	0.05
0	1461	72.069634267061	0.05
0	1463	72.169634267061	0.05
0	1464	72.208038679	0.05
0	1465	72.269634267061	0.05
0	1467	72.369634267061	0.05
0	1469	72.469634267061	0.05
0	1471	72.569634267061	0.05
0	1472	72.587534977	0.05
0	1473	72.669634267061	0.05
0	1475	72.769634267061	0.05
0	1477	72.869634267061	0.05
0	1479	72.969634267061	0.05
0	1482	73.069634267061	0.05
0	1483	73.088865706	0.05
0	1484	73.169634267061	0.05
0	1486	73.269634267061	0.05
0	1488	73.369634267061	0.05
0	1490	73.469634267061	0.05
0	1492	73.569634267061	0.05
0	1493	73.593871594	0.05
0	1494	73.669634267061	0.0495
0	1494	73.669634267061	0.0495
0	1496	73.769634267061	0.0499
0	1498	73.869634267061	0.05
0	1500	73.969634267061	0.05
0	1502	74.069634267061	0.05
0	1503	74.097257251	0.05
0	1504	74.169634267061	0.05
0	1506	74.269634267061	0.05
0	1508	74.369634267061	0.05
0	1510	74.469634267061	0.05
0	1511	74.531281159	0.05
0	1512	74.569634267061	0.05
0	1514	74.669634267061	0.05
0	1516	74.769634267061	0.05
0	1518	74.869634267061	0.05
0	1520	74.969634267061	0.05
0	1521	74.991369649	0.05
0	1522	75.069634267061	0.0495
0	1522	75.069634267061	0.0495
0	1524	75.169634267061	0.0499
0	1526	75.269634267061	0.05
0	1528	75.369634267061	0.05
0	1529	75.455063128	0.05
0	1530	75.469634267061	0.05
0	1532	75.569634267061	0.05
0	1534	75.669634267061	0.05
0	1535	75.721386106	0.05
0	1536	75.769634267061	0.05
0	1538	75.869634267061	0.05
0	1540	75.969634267061	0.05
0	1542	76.069634267061	0.05
0	1544	76.169634267061	0.05
0	1545	76.237664188	0.05
0	1546	76.269634267061	0.05
0	1548	76.369634267061	0.05
0	1550	76.469634267061	0.0495
0	1550	76.469634267061	0.0495
0	1552	76.569634267061	0.0499
0	1554	76.669634267061	0.05
0	1555	76.701960073	0.05
0	1556	76.769634267061	0.05
0	1558	76.869634267061	0.05
0	1560	76.969634267061	0.05
0	1562	77.069634267061	0.05
0	1563	77.140788004	0.05
0	1564	77.169634267061	0.05
0	1566	77.269634267061	0.05
0	1568	77.369634267061	0.05
0	1569	77.439701623	0.05
0	1570	77.469634267061	0.05
0	1572	77.569634267061	0.05
0	1574	77.669634267061	0.05
0	1576	77.769634267061	0.05
0	1578	77.869634267061	0.0495
0	1578	77.869634267061	0.0495
0	1579	77.89064677	0.049584050011756
0	1580	77.898615291431	0.04961592409748
0	1581	77.969634267061	0.04961592409748
0	1583	78.069634267061	0.04961592409748
0	1585	78.169634267061	0.04961592409748
0	1587	78.269634267061	0.04961592409748
0	1588	78.324571141	0.04961592409748
0	1589	78.369634267061	0.04961592409748
0	1591	78.469634267061	0.04961592409748
0	1593	78.569634267061	0.04961592409748
0	1595	78.669634267061	0.04961592409748
0	1596	78.743528632	0.04961592409748
0	1597	78.769634267061	0.04961592409748
0	1599	78.869634267061	0.04961592409748
0	1601	78.969634267061	0.04961592409748
0	1603	79.069634267061	0.04961592409748
0	1605	79.169634267061	0.04961592409748
0	1606	79.221619987	0.04961592409748
0	1607	79.269634267061	0.04961592409748
0	1609	79.369634267061	0.04961592409748
0	1611	79.469634267061	0.04961592409748
0	1613	79.569634267061	0.04961592409748
0	1615	79.669634267061	0.04961592409748
0	1616	79.737093451	0.04961592409748
0	1617	79.769634267061	0.04961592409748
0	1619	79.869634267061	0.04961592409748
0	1621	79.969634267061	0.04961592409748
0	1622	80.013892117	0.04961592409748
0	1623	80.069634267061	0.04961592409748
0	1625	80.169634267061	0.04961592409748
0	1627	80.269634267061	0.04961592409748
0	1629	80.369634267061	0.04961592409748
0	1630	80.467275115	0.04961592409748
0	1631	80.469634267061	0.04961592409748
0	1633	80.569634267061	0.04961592409748
0	1635	80.669634267061	0.04961592409748
0	1637	80.769634267061	0.04961592409748
0	1639	80.869634267061	0.04961592409748
0	1640	80.941368301	0.04961592409748
0	1641	80.969634267061	0.04961592409748
0	1643	81.069634267061	0.04961592409748
0	1644	81.152426191	0.04961592409748
0	1645	81.169634267061	0.04961592409748
0	1647	81.269634267061	0.04961592409748
0	1649	81.369634267061	0.04961592409748
0	1650	81.443894179	0.04961592409748
0	1651	81.469634267061	0.04961592409748
0	1653	81.569634267061	0.04961592409748
0	1655	81.669634267061	0.04961592409748
0	1657	81.769634267061	0.04961592409748
0	1659	81.869634267061	0.04961592409748
0	1660	81.904213573	0.04961592409748
0	1661	81.969634267061	0.04961592409748
0	1663	82.069634267061	0.04961592409748
0	1665	82.169634267061	0.04961592409748
0	1667	82.269634267061	0.04961592409748
0	1668	82.336314715	0.04961592409748
0	1669	82.369634267061	0.04961592409748
0	1671	82.469634267061	0.04961592409748
0	1673	82.569634267061	0.04961592409748
0	1675	82.669634267061	0.04961592409748
0	1677	82.769634267061	0.04961592409748
0	1679	82.869634267061	0.04961592409748
0	1680	82.891258636	0.04961592409748
0	1681	82.969634267061	0.04961592409748
0	1683	83.069634267061	0.04961592409748
0	1685	83.169634267061	0.04961592409748
0	1687	83.269634267061	0.04961592409748
0	1689	83.369634267061	0.04961592409748
0	1690	83.467427953	0.04961592409748
0	1691	83.469634267061	0.04961592409748
0	1693	83.569634267061	0.04961592409748
0	1695	83.669634267061	0.04961592409748
0	1696	83.730486463	0.04961592409748
0	1697	83.769634267061	0.04961592409748
0	1699	83.869634267061	0.04961592409748
0	1701	83.969634267061	0.04961592409748
0	1703	84.069634267061	0.04961592409748
0	1705	84.169634267061	0.04961592409748
0	1706	84.195659602	0.04961592409748
0	1707	84.269634267061	0.04961592409748
0	1709	84.369634267061	0.04961592409748
0	1711	84.469634267061	0.04961592409748
0	1713	84.569634267061	0.04961592409748
0	1714	84.602579995	0.04961592409748
0	1715	84.669634267061	0.04961592409748
0	1717	84.769634267061	0.04961592409748
0	1719	84.869634267061	0.04961592409748
0	1721	84.969634267061	0.04961592409748
0	1722	84.99651682	0.04961592409748
0	1723	85.069634267061	0.04961592409748
0	1725	85.169634267061	0.04961592409748
0	1727	85.269634267061	0.04961592409748
0	1729	85.369634267061	0.04961592409748
0	1730	85.403377111	0.04961592409748
0	1731	85.469634267061	0.04961592409748
0	1733	85.569634267061	0.04961592409748
0	1735	85.669634267061	0.04961592409748
0	1737	85.769634267061	0.04961592409748
0	1739	85.869634267061	0.04961592409748
0	1740	85.934082748	0.04961592409748
0	1741	85.969634267061	0.04961592409748
0	1743	86.069634267061	0.04961592409748
0	1745	86.169634267061	0.04961592409748
0	1747	86.269634267061	0.04961592409748
0	1749	86.369634267061	0.04961592409748
0	1750	86.412662101	0.04961592409748
0	1751	86.469634267061	0.04961592409748
0	1753	86.569634267061	0.04961592409748
0	1755	86.669634267061	0.04961592409748
0	1757	86.769634267061	0.04961592409748
0	1759	86.869634267061	0.04961592409748
0	1760	86.949383548	0.04961592409748
0	1761	86.969634267061	0.04961592409748
0	1763	87.069634267061	0.04961592409748
0	1765	87.169634267061	0.04961592409748
0	1767	87.269634267061	0.04961592409748
0	1769	87.369634267061	0.04961592409748
0	1771	87.469634267061	0.04961592409748
0	1772	87.497645284	0.04961592409748
0	1773	87.569634267061	0.04961592409748
0	1775	87.669634267061	0.04961592409748
0	1777	87.769634267061	0.04961592409748
0	1779	87.869634267061	0.04961592409748
0	1781	87.969634267061	0.04961592409748
0	1782	88.044136462	0.04961592409748
0	1783	88.069634267061	0.04961592409748
0	1785	88.169634267061	0.04961592409748
0	1787	88.269634267061	0.04961592409748
0	1789	88.369634267061	0.04961592409748
0	1791	88.469634267061	0.04961592409748
0	1793	88.569634267061	0.04961592409748
0	1793	88.581076336	0.04961592409748
0	1795	88.669634267061	0.04961592409748
0	1797	88.769634267061	0.04961592409748
0	1799	88.869634267061	0.04961592409748
0	1801	88.969634267061	0.04961592409748
0	1803	89.069634267061	0.04961592409748
0	1804	89.116546429	0.04961592409748
0	1805	89.169634267061	0.04961592409748
0	1807	89.269634267061	0.04961592409748
0	1809	89.369634267061	0.04961592409748
0	1811	89.469634267061	0.04961592409748
0	1813	89.569634267061	0.04961592409748
0	1814	89.625366898	0.04961592409748
0	1815	89.669634267061	0.04961592409748
0	1817	89.769634267061	0.04961592409748
0	1819	89.869634267061	0.04961592409748
0	1821	89.969634267061	0.04961592409748
0	1822	90.054472831	0.04961592409748
0	1823	90.069634267061	0.04961592409748
0	1825	90.169634267061	0.04961592409748
0	1828	90.269634267061	0.049119764856505
0	1828	90.269634267061	0.049119764856505
0	1831	90.369634267061	0.049119764856505
0	1834	90.469634267061	0.049119764856505
0	1837	90.569634267061	0.049119764856505
0	1838	90.598537759	0.049119764856505
0	1839	90.669634267061	0.049119764856505
0	1842	90.769634267061	0.049119764856505
0	1845	90.869634267061	0.049119764856505
0	1848	90.969634267061	0.049119764856505
0	1851	91.069634267061	0.049119764856505
0	1852	91.104052897	0.049119764856505
0	1853	91.169634267061	0.049119764856505
0	1856	91.269634267061	0.049119764856505
0	1858	91.369634267061	0.04862856720794
0	1858	91.369634267061	0.04862856720794
0	1860	91.469634267061	0.04862856720794
0	1862	91.569634267061	0.04862856720794
0	1863	91.6229923	0.04862856720794
0	1864	91.669634267061	0.04862856720794
0	1866	91.769634267061	0.04862856720794
0	1868	91.869634267061	0.04862856720794
0	1869	91.889156305	0.04862856720794
0	1870	91.969634267061	0.04862856720794
0	1872	92.069634267061	0.04862856720794
0	1874	92.169634267061	0.04862856720794
0	1876	92.269634267061	0.04862856720794
0	1878	92.369634267061	0.04862856720794
0	1879	92.413947805	0.04862856720794
0	1880	92.469634267061	0.04862856720794
0	1882	92.569634267061	0.04862856720794
0	1884	92.669634267061	0.04862856720794
0	1886	92.769634267061	0.048142281535861
0	1886	92.769634267061	0.048142281535861
0	1888	92.869634267061	0.048142281535861
0	1889	92.956846219	0.048142281535861
0	1890	92.969634267061	0.048142281535861
0	1892	93.069634267061	0.048142281535861
0	1894	93.169634267061	0.048142281535861
0	1895	93.249863383	0.048142281535861
0	1896	93.269634267061	0.048142281535861
0	1898	93.369634267061	0.048142281535861
0	1901	93.469634267061	0.048142281535861
0	1903	93.569634267061	0.048142281535861
0	1905	93.669634267061	0.048142281535861
0	1907	93.769634267061	0.048142281535861
0	1907	93.795170719	0.048142281535861
0	1909	93.869634267061	0.048142281535861
0	1911	93.969634267061	0.048142281535861
0	1913	94.069634267061	0.048142281535861
0	1915	94.169634267061	0.048142281535861
0	1917	94.269634267061	0.048142281535861
0	1918	94.346753533	0.048142281535861
0	1919	94.369634267061	0.048142281535861
0	1921	94.469634267061	0.048142281535861
0	1923	94.569634267061	0.048142281535861
0	1925	94.669634267061	0.048142281535861
0	1927	94.769634267061	0.048142281535861
0	1929	94.869634267061	0.048142281535861
0	1931	94.969634267061	0.048142281535861
0	1931	95.003336257	0.048142281535861
0	1933	95.069634267061	0.048142281535861
0	1935	95.169634267061	0.048142281535861
0	1937	95.269634267061	0.048142281535861
0	1939	95.369634267061	0.048142281535861
0	1940	95.434358857	0.048142281535861
0	1941	95.469634267061	0.048142281535861
0	1943	95.544915169186	0.048142281535861
0	1944	95.569634267061	0.048241157927361
0	1946	95.634344785221	0.0485
0	1947	95.669634267061	0.04864115792736
0	1949	95.759344785221	0.049
0	1950	95.769634267061	0.04904115792736
0	1953	95.869634267061	0.04944115792736
0	1954	95.884344785221	0.0495
0	1954	95.893094269	0.049534997935116
0	1956	95.969634267061	0.04984115792736
0	1957	96.009344785221	0.05
0	1959	96.069634267061	0.05
0	1961	96.169634267061	0.05
0	1963	96.269634267061	0.05
0	1964	96.350079604	0.05
0	1965	96.369634267061	0.05
0	1967	96.469634267061	0.05
0	1969	96.569634267061	0.05
0	1971	96.669634267061	0.05
0	1972	96.768173278	0.05
0	1973	96.769634267061	0.05
0	1975	96.869634267061	0.05
0	1977	96.969634267061	0.05
0	1979	97.069634267061	0.05
0	1981	97.169634267061	0.05
0	1981	97.212389257	0.05
0	1983	97.269634267061	0.05
0	1985	97.369634267061	0.05
0	1987	97.469634267061	0.05
0	1987	97.503208012	0.05
0	1989	97.569634267061	0.05
0	1991	97.669634267061	0.05
0	1993	97.769634267061	0.05
0	1995	97.869634267061	0.05
0	1997	97.969634267061	0.05
0	1999	98.069634267061	0.05
0	1999	98.116231789	0.0495
0	1999	98.116231789	0.0495
0	2001	98.169634267061	0.049713609912244
0	2003	98.269634267061	0.05
0	2005	98.369634267061	0.05
0	2007	98.469634267061	0.05
0	2008	98.477258499212	0.05
0	2010	98.577258499212	0.05
0	2011	98.676606427	0.05
0	2012	98.677258499212	0.05
0	2014	98.777258499212	0.05
0	2016	98.877258499212	0.05
0	2018	98.977258499212	0.05
0	2020	99.077258499212	0.05
0	2022	99.177258499212	0.05
0	2024	99.277258499212	0.05
0	2024	99.321737728	0.05
0	2026	99.377258499212	0.05
0	2028	99.477258499212	0.0495
0	2028	99.477258499212	0.0495
0	2030	99.577258499212	0.0499
0	2032	99.677258499212	0.05
0	2034	99.777258499212	0.05
0	2035	99.867419209	0.05
0	2036	99.877258499212	0.05
0	2038	99.977258499212	0.05
0	2040	100.077258499212	0.05
0	2042	100.177258499212	0.05
0	2044	100.277258499212	0.05
0	2046	100.377258499212	0.05
0	2048	100.477258499212	0.05
0	2048	100.4979832	0.05
0	2050	100.577258499212	0.05
0	2052	100.677258499212	0.05
0	2054	100.777258499212	0.05
0	2056	100.877258499212	0.05
0	2058	100.977258499212	0.0495
0	2058	100.977258499212	0.0495
0	2059	101.033271184	0.049724050739152
0	2060	101.077258499212	0.0499
0	2062	101.177258499212	0.05
0	2064	101.277258499212	0.05
0	2064	101.315579485	0.05
0	2066	101.377258499212	0.05
0	2068	101.477258499212	0.05
0	2070	101.577258499212	0.05
0	2070	101.607840565	0.05
0	2072	101.677258499212	0.05
0	2074	101.777258499212	0.05
0	2076	101.877258499212	0.05
0	2078	101.977258499212	0.05
0	2080	102.077258499212	0.05
0	2081	102.131118805	0.05
0	2082	102.177258499212	0.05
0	2084	102.277258499212	0.0495
0	2084	102.277258499212	0.0495
0	2086	102.377258499212	0.0499
0	2088	102.477258499212	0.05
0	2090	102.577258499212	0.05
0	2091	102.638334385	0.05
0	2092	102.677258499212	0.05
0	2094	102.777258499212	0.05
0	2095	102.87214336	0.05
0	2096	102.877258499212	0.05
0	2098	102.977258499212	0.05
0	2100	103.077258499212	0.05
0	2102	103.177258499212	0.05
0	2104	103.277258499212	0.05
0	2106	103.377258499212	0.05
0	2106	103.428545251	0.05
0	2108	103.477258499212	0.05
0	2110	103.577258499212	0.05
0	2112	103.677258499212	0.0495
0	2112	103.677258499212	0.0495
0	2114	103.777258499212	0.0499
0	2115	103.848829573	0.05
0	2116	103.877258499212	0.05
0	2118	103.977258499212	0.05
0	2120	104.077258499212	0.05
0	2122	104.177258499212	0.05
0	2124	104.277258499212	0.05
0	2126	104.377258499212	0.05
0	2126	104.399106535	0.05
0	2128	104.477258499212	0.05
0	2130	104.577258499212	0.05
0	2132	104.677258499212	0.05
0	2134	104.777258499212	0.05
0	2135	104.860979968	0.05
0	2136	104.877258499212	0.05
0	2138	104.977258499212	0.05
0	2140	105.077258499212	0.0495
0	2140	105.077258499212	0.0495
0	2141	105.148102678	0.049783376715152
0	2142	105.177258499212	0.0499
0	2144	105.277258499212	0.05
0	2145	105.310515201471	0.05
0	2147	105.334970701209	0.05
0	2147	105.423352867	0.05
0	2149	105.434970701209	0.05
0	2151	105.534970701209	0.05
0	2153	105.634970701209	0.05
0	2155	105.734970701209	0.05
0	2157	105.834970701209	0.05
0	2159	105.934970701209	0.05
0	2159	106.006866193	0.05
0	2161	106.034970701209	0.05
0	2163	106.134970701209	0.05
0	2165	106.234970701209	0.05
0	2167	106.334970701209	0.05
0	2167	106.419858961	0.0495
0	2167	106.419858961	0.0495
0	2169	106.434970701209	0.0495
0	2171	106.534970701209	0.0495
0	2173	106.634970701209	0.0495
0	2173	106.683432991	0.0495
0	2175	106.734970701209	0.0495
0	2177	106.834970701209	0.0495
0	2179	106.934970701209	0.0495
0	2181	107.034970701209	0.0495
0	2183	107.134970701209	0.0495
0	2185	107.234970701209	0.0495
0	2187	107.334970701209	0.0495
0	2188	107.373602959	0.0495
0	2190	107.434970701209	0.0495
0	2193	107.534970701209	0.0495
0	2195	107.634970701209	0.0495
0	2197	107.734970701209	0.0495
0	2199	107.834970701209	0.0495
0	2201	107.934970701209	0.0495
0	2203	108.034970701209	0.0495
0	2205	108.134970701209	0.0495
0	2205	108.186080005	0.0495
0	2207	108.234970701209	0.0495
0	2209	108.334970701209	0.0495
0	2211	108.434970701209	0.0495
0	2213	108.534970701209	0.0495
0	2215	108.634970701209	0.0495
0	2217	108.734970701209	0.0495
0	2217	108.792536071	0.0495
0	2219	108.834970701209	0.0495
0	2221	108.934970701209	0.0495
0	2223	109.034970701209	0.0495
0	2225	109.134970701209	0.0495
0	2225	109.217099587	0.049005
0	2225	109.217099587	0.049005
0	2227	109.234970701209	0.049005
0	2229	109.334970701209	0.049005
0	2231	109.434970701209	0.049005
0	2233	109.534970701209	0.049005
0	2235	109.634970701209	0.049005
0	2235	109.637176426	0.049005
0	2237	109.734970701209	0.049005
0	2239	109.834970701209	0.049005
0	2241	109.934970701209	0.049005
0	2243	110.034970701209	0.049005
0	2243	110.114906923	0.049005
0	2245	110.134970701209	0.049005
0	2247	110.234970701209	0.049005
0	2249	110.334970701209	0.049005
0	2251	110.434970701209	0.049005
0	2253	110.534970701209	0.049005
0	2253	110.603756026	0.04851495
0	2253	110.603756026	0.04851495
0	2255	110.634970701209	0.04851495
0	2257	110.734970701209	0.04851495
0	2259	110.834970701209	0.04851495
0	2261	110.934970701209	0.04851495
0	2263	111.034970701209	0.04851495
0	2265	111.134970701209	0.04851495
0	2265	111.143940322	0.04851495
0	2267	111.234970701209	0.04851495
0	2269	111.334970701209	0.04851495
0	2270	111.420661701307	0.04851495
0	2272	111.520661701307	0.04851495
0	2273	111.61980436	0.04851495
0	2274	111.620661701307	0.04851495
0	2276	111.720661701307	0.04851495
0	2278	111.820661701307	0.04851495
0	2280	111.920661701307	0.04851495
0	2282	112.020661701307	0.0480298005
0	2282	112.020661701307	0.0480298005
0	2283	112.077028567	0.0480298005
0	2284	112.120661701307	0.0480298005
0	2286	112.220661701307	0.0480298005
0	2288	112.320661701307	0.0480298005
0	2289	112.337999392	0.0480298005
0	2290	112.420661701307	0.0480298005
0	2292	112.520661701307	0.0480298005
0	2294	112.620661701307	0.0480298005
0	2296	112.720661701307	0.0480298005
0	2297	112.818694936	0.0480298005
0	2298	112.820661701307	0.0480298005
0	2300	112.920661701307	0.0480298005
0	2302	113.020661701307	0.0480298005
0	2304	113.120661701307	0.0480298005
0	2306	113.220661701307	0.0480298005
0	2308	113.320661701307	0.0480298005
0	2309	113.376317608	0.047549502495
0	2309	113.376317608	0.047549502495
0	2310	113.420661701307	0.047549502495
0	2312	113.520661701307	0.047549502495
0	2314	113.620661701307	0.047549502495
0	2316	113.720661701307	0.047549502495
0	2318	113.820661701307	0.047549502495
0	2319	113.847177769	0.047549502495
0	2320	113.920661701307	0.047549502495
0	2322	114.020661701307	0.047549502495
0	2324	114.120661701307	0.047549502495
0	2326	114.220661701307	0.047549502495
0	2328	114.320661701307	0.047549502495
0	2329	114.358160494	0.047549502495
0	2330	114.420661701307	0.047549502495
0	2332	114.520661701307	0.047549502495
0	2334	114.620661701307	0.047549502495
0	2336	114.720661701307	0.047549502495
0	2338	114.820661701307	0.04707400747005
0	2338	114.820661701307	0.04707400747005
0	2339	114.850561561	0.04707400747005
0	2340	114.920661701307	0.04707400747005
0	2342	115.020661701307	0.04707400747005
0	2344	115.120661701307	0.04707400747005
0	2346	115.220661701307	0.04707400747005
0	2347	115.278784744	0.04707400747005
0	2348	115.320661701307	0.04707400747005
0	2350	115.420661701307	0.04707400747005
0	2352	115.520661701307	0.04707400747005
0	2354	115.620661701307	0.04707400747005
0	2356	115.720661701307	0.04707400747005
0	2357	115.766065177	0.04707400747005
0	2358	115.820661701307	0.04707400747005
0	2360	115.920661701307	0.04707400747005
0	2362	116.020661701307	0.04707400747005
0	2364	116.120661701307	0.04707400747005
0	2366	116.220661701307	0.04660326739535
0	2366	116.220661701307	0.04660326739535
0	2367	116.280518227	0.04660326739535
0	2368	116.320661701307	0.04660326739535
0	2370	116.420661701307	0.04660326739535
0	2372	116.520661701307	0.04660326739535
0	2374	116.620661701307	0.04660326739535
0	2376	116.720661701307	0.04660326739535
0	2376	116.726857369	0.04660326739535
0	2378	116.820661701307	0.04660326739535
0	2380	116.920661701307	0.04660326739535
0	2382	117.020661701307	0.04660326739535
0	2384	117.120661701307	0.04660326739535
0	2386	117.220661701307	0.04660326739535
0	2387	117.283183279	0.04660326739535
0	2388	117.309964641679	0.04660326739535
0	2390	117.409964641679	0.04660326739535
0	2392	117.509964641679	0.04660326739535
0	2394	117.609964641679	0.046137234721396
0	2394	117.609964641679	0.046137234721396
0	2396	117.709964641679	0.046137234721396
0	2398	117.809964641679	0.046137234721396
0	2399	117.897432991	0.046137234721396
0	2400	117.909964641679	0.046137234721396
0	2402	118.009964641679	0.046137234721396
0	2404	118.109964641679	0.046137234721396
0	2406	118.209964641679	0.046137234721396
0	2408	118.309964641679	0.046137234721396
0	2410	118.409964641679	0.046137234721396
0	2411	118.497922027	0.046137234721396
0	2412	118.509964641679	0.046137234721396
0	2414	118.609964641679	0.046137234721396
0	2416	118.709964641679	0.046137234721396
0	2418	118.809964641679	0.046137234721396
0	2420	118.909964641679	0.046137234721396
0	2422	119.009964641679	0.046137234721396
0	2424	119.109964641679	0.045675862374182
0	2424	119.109964641679	0.045675862374182
0	2424	119.12781577	0.045675862374182
0	2426	119.209964641679	0.045675862374182
0	2428	119.309964641679	0.045675862374182
0	2430	119.409964641679	0.045675862374182
0	2432	119.509964641679	0.045675862374182
0	2434	119.609964641679	0.045675862374182
0	2435	119.7004978	0.045675862374182
0	2436	119.709964641679	0.045675862374182
0	2438	119.809964641679	0.045675862374182
0	2440	119.909964641679	0.045675862374182
0	2442	120.009964641679	0.045675862374182
0	2444	120.109964641679	0.045675862374182
0	2446	120.209964641679	0.045675862374182
0	2447	120.288351022	0.045675862374182
0	2448	120.309964641679	0.045675862374182
0	2450	120.409964641679	0.045675862374182
0	2452	120.509964641679	0.04521910375044
0	2452	120.509964641679	0.04521910375044
0	2454	120.609964641679	0.04521910375044
0	2456	120.709964641679	0.04521910375044
0	2458	120.809964641679	0.04521910375044
0	2459	120.87150796	0.04521910375044
0	2460	120.909964641679	0.04521910375044
0	2462	121.009964641679	0.04521910375044
0	2464	121.109964641679	0.04521910375044
0	2466	121.209964641679	0.04521910375044
0	2468	121.309964641679	0.04521910375044
0	2470	121.409964641679	0.04521910375044
0	2470	121.426908517	0.04521910375044
0	2472	121.509964641679	0.04521910375044
0	2474	121.609964641679	0.04521910375044
0	2476	121.709964641679	0.04521910375044
0	2478	121.809964641679	0.04521910375044
0	2480	121.909964641679	0.04521910375044
0	2482	122.009964641679	0.044766912712936
0	2482	122.009964641679	0.044766912712936
0	2483	122.062802164	0.044766912712936
0	2484	122.109964641679	0.044766912712936
0	2486	122.209964641679	0.044766912712936
0	2488	122.309964641679	0.044766912712936
0	2490	122.409964641679	0.044766912712936
0	2492	122.509964641679	0.044766912712936
0	2494	122.609964641679	0.044766912712936
0	2496	122.709964641679	0.044766912712936
0	2496	122.724363331	0.044766912712936
0	2498	122.809964641679	0.044766912712936
0	2500	122.909964641679	0.044766912712936
0	2502	123.009964641679	0.044766912712936
0	2504	123.109964641679	0.044766912712936
0	2506	123.209964641679	0.044766912712936
0	2508	123.309964641679	0.044766912712936
0	2509	123.384034525	0.044766912712936
0	2510	123.409964641679	0.044319243585806
0	2510	123.409964641679	0.044319243585806
0	2512	123.509964641679	0.044319243585806
0	2514	123.609964641679	0.044319243585806
0	2516	123.709964641679	0.044319243585806
0	2518	123.809964641679	0.044319243585806
0	2520	123.909964641679	0.044319243585806
0	2521	123.976272196	0.044319243585806
0	2522	124.009964641679	0.044319243585806
0	2524	124.109964641679	0.044319243585806
0	2526	124.209964641679	0.044319243585806
0	2528	124.309964641679	0.044319243585806
0	2530	124.409964641679	0.044319243585806
0	2532	124.509964641679	0.044319243585806
0	2533	124.581644257	0.044319243585806
0	2534	124.609964641679	0.044319243585806
0	2536	124.709964641679	0.044319243585806
0	2538	124.809964641679	0.044319243585806
0	2540	124.909964641679	0.043876051149948
0	2540	124.909964641679	0.043876051149948
0	2542	125.009964641679	0.043876051149948
0	2543	125.089318762	0.043876051149948
0	2544	125.109964641679	0.043876051149948
0	2546	125.209964641679	0.043876051149948
0	2548	125.2308693509	0.043876051149948
0	2549	125.261856563413	0.044
0	2550	125.309964641679	0.044192432313064
0	2552	125.386856563413	0.0445
0	2553	125.409964641679	0.044592432313064
0	2555	125.509964641679	0.044992432313064
0	2556	125.511856563413	0.045
0	2557	125.533936762	0.045088320794348
0	2558	125.609964641679	0.045392432313064
0	2560	125.636856563413	0.0455
0	2561	125.709964641679	0.045792432313064
0	2563	125.761856563413	0.046
0	2564	125.809964641679	0.046192432313064
0	2564	125.825374258	0.046254070778348
0	2566	125.886856563413	0.0465
0	2567	125.909964641679	0.046592432313064
0	2569	126.009964641679	0.046992432313064
0	2570	126.011856563413	0.047
0	2572	126.109964641679	0.047392432313064
0	2575	126.136856563413	0.0475
0	2576	126.209964641679	0.047792432313064
0	2578	126.261856563413	0.048
0	2579	126.309964641679	0.048192432313064
0	2580	126.369802228	0.048431782658348
0	2581	126.386856563413	0.0485
0	2582	126.389532171148	0.04851070243094
0	2584	126.489532171148	0.04891070243094
0	2585	126.511856563413	0.049
0	2587	126.589532171148	0.04931070243094
0	2589	126.636856563413	0.0495
0	2590	126.689532171148	0.04971070243094
0	2592	126.761856563413	0.05
0	2593	126.789532171148	0.05
0	2595	126.889532171148	0.05
0	2596	126.977288074	0.05
0	2597	126.989532171148	0.05
0	2599	127.089532171148	0.05
0	2601	127.189532171148	0.05
0	2603	127.289532171148	0.05
0	2605	127.389532171148	0.05
0	2607	127.489532171148	0.05
0	2609	127.589532171148	0.05
0	2609	127.603124311	0.05
0	2611	127.689532171148	0.05
0	2613	127.789532171148	0.05
0	2615	127.889532171148	0.05
0	2617	127.989532171148	0.05
0	2619	128.089532171148	0.05
0	2621	128.189532171148	0.05
0	2623	128.289532171148	0.05
0	2623	128.292261493	0.05
0	2625	128.389532171148	0.05
0	2627	128.489532171148	0.05
0	2629	128.589532171148	0.05
0	2631	128.689532171148	0.05
0	2633	128.789532171148	0.05
0	2634	128.868288004	0.05
0	2635	128.889532171148	0.05
0	2637	128.989532171148	0.05
0	2639	129.089532171148	0.05
0	2641	129.189532171148	0.05
0	2643	129.289532171148	0.05
0	2644	129.352447111	0.05
0	2645	129.389532171148	0.05
0	2647	129.489532171148	0.05
0	2649	129.589532171148	0.05
0	2651	129.689532171148	0.05
0	2653	129.789532171148	0.05
0	2655	129.889532171148	0.05
0	2656	129.941812819	0.05
0	2657	129.989532171148	0.05
0	2658	130.002858105644	0.05
0	2661	130.102858105644	0.05
0	2663	130.202858105644	0.05
0	2665	130.302858105644	0.05
0	2667	130.402858105644	0.05
0	2668	130.482062758	0.05
0	2669	130.502858105644	0.05
0	2671	130.602858105644	0.05
0	2673	130.702858105644	0.05
0	2675	130.802858105644	0.05
0	2677	130.902858105644	0.05
0	2678	130.95535945	0.05
0	2679	131.002858105644	0.05
0	2681	131.102858105644	0.05
0	2683	131.202858105644	0.05
0	2685	131.302858105644	0.05
0	2687	131.402858105644	0.0495
0	2687	131.402858105644	0.0495
0	2687	131.420417914	0.049570239233424
0	2689	131.502858105644	0.0499
0	2691	131.602858105644	0.05
0	2693	131.702858105644	0.05
0	2695	131.802858105644	0.05
0	2697	131.902858105644	0.05
0	2697	131.915841178	0.05
0	2699	132.002858105644	0.05
0	2701	132.102858105644	0.05
0	2703	132.202858105644	0.05
0	2705	132.302858105644	0.05
0	2706	132.358054735	0.05
0	2707	132.402858105644	0.05
0	2709	132.502858105644	0.05
0	2711	132.602858105644	0.05
0	2713	132.702858105644	0.05
0	2715	132.802858105644	0.0495
0	2715	132.802858105644	0.0495
0	2715	132.823175086	0.049581267921424
0	2717	132.902858105644	0.0499
0	2719	133.002858105644	0.05
0	2721	133.102858105644	0.05
0	2723	133.202858105644	0.05
0	2725	133.302858105644	0.05
0	2726	133.35353791	0.05
0	2727	133.402858105644	0.05
0	2729	133.502858105644	0.05
0	2731	133.602858105644	0.05
0	2733	133.702858105644	0.05
0	2735	133.802858105644	0.05
0	2735	133.818443398	0.05
0	2737	133.902858105644	0.05
0	2739	134.002858105644	0.05
0	2741	134.102858105644	0.05
0	2743	134.202858105644	0.0495
0	2743	134.202858105644	0.0495
0	2744	134.270420629	0.049770250093424
0	2745	134.302858105644	0.0499
0	2747	134.402858105644	0.05
0	2749	134.502858105644	0.05
0	2751	134.602858105644	0.05
0	2753	134.702858105644	0.05
0	2754	134.773791298	0.05
0	2755	134.802858105644	0.05
0	2757	134.866441567819	0.05
0	2759	134.966441567819	0.05
0	2761	135.066441567819	0.05
0	2763	135.166441567819	0.05
0	2765	135.266441567819	0.05
0	2765	135.309514039	0.05
0	2767	135.366441567819	0.05
0	2769	135.466441567819	0.05
0	2771	135.566441567819	0.0495
0	2771	135.566441567819	0.0495
0	2773	135.666441567819	0.0499
0	2775	135.766441567819	0.05
0	2775	135.775731445	0.05
0	2777	135.866441567819	0.05
0	2779	135.966441567819	0.05
0	2781	136.066441567819	0.05
0	2783	136.166441567819	0.05
0	2784	136.2563089	0.05
0	2785	136.266441567819	0.05
0	2787	136.366441567819	0.05
0	2789	136.466441567819	0.05
0	2791	136.566441567819	0.05
0	2793	136.666441567819	0.05
0	2794	136.733267131	0.05
0	2795	136.766441567819	0.05
0	2797	136.866441567819	0.05
0	2799	136.966441567819	0.0495
0	2799	136.966441567819	0.0495
0	2800	137.032058383	0.049762467260724
0	2801	137.066441567819	0.0499
0	2803	137.166441567819	0.05
0	2805	137.266441567819	0.05
0	2807	137.366441567819	0.05
0	2809	137.466441567819	0.05
0	2810	137.540797357	0.05
0	2811	137.566441567819	0.05
0	2813	137.666441567819	0.05
0	2815	137.766441567819	0.05
0	2817	137.866441567819	0.05
0	2819	137.966441567819	0.05
0	2819	138.006975124	0.05
0	2821	138.066441567819	0.05
0	2823	138.166441567819	0.05
0	2825	138.266441567819	0.05
0	2827	138.366441567819	0.0495
0	2827	138.366441567819	0.0495
0	2828	138.464132605	0.049890764148724
0	2829	138.466441567819	0.0499
0	2831	138.566441567819	0.05
0	2833	138.666441567819	0.05
0	2835	138.766441567819	0.05
0	2837	138.866441567819	0.05
0	2839	138.966441567819	0.05
0	2841	139.066441567819	0.05
0	2841	139.09450984	0.05
0	2843	139.166441567819	0.05
0	2845	139.266441567819	0.05
0	2847	139.366441567819	0.05
0	2849	139.466441567819	0.05
0	2851	139.566441567819	0.05
0	2851	139.617316903	0.05
0	2853	139.666441567819	0.05
0	2855	139.766441567819	0.0495
0	2855	139.766441567819	0.0495
0	2857	139.866441567819	0.0499
0	2857	139.892871889	0.05
0	2859	139.966441567819	0.05
0	2861	140.066441567819	0.05
0	2863	140.166441567819	0.05
0	2865	140.266441567819	0.05
0	2867	140.366441567819	0.05
0	2867	140.367579382	0.05
0	2868	140.377343125493	0.05
0	2870	140.477343125493	0.05
0	2872	140.577343125493	0.05
0	2874	140.677343125493	0.05
0	2876	140.777343125493	0.05
0	2878	140.877343125493	0.05
0	2879	140.943091204	0.05
0	2880	140.977343125493	0.05
0	2882	141.077343125493	0.05
0	2884	141.177343125493	0.05
0	2886	141.277343125493	0.05
0	2888	141.377343125493	0.05
0	2890	141.477343125493	0.05
0	2892	141.577343125493	0.05
0	2892	141.582075649	0.05
0	2894	141.677343125493	0.05
0	2896	141.777343125493	0.05
0	2898	141.877343125493	0.05
0	2900	141.977343125493	0.05
0	2902	142.077343125493	0.05
0	2904	142.177343125493	0.05
0	2905	142.229486968	0.05
0	2906	142.277343125493	0.05
0	2908	142.377343125493	0.05
0	2910	142.477343125493	0.05
0	2913	142.577343125493	0.0495
0	2913	142.577343125493	0.0495
0	2916	142.677343125493	0.0499
0	2918	142.777343125493	0.05
0	2919	142.800812551	0.05
0	2921	142.877343125493	0.05
0	2924	142.977343125493	0.05
0	2927	143.077343125493	0.05
0	2929	143.177343125493	0.05
0	2931	143.277343125493	0.05
0	2933	143.377343125493	0.05
0	2933	143.378358922	0.05
0	2935	143.477343125493	0.05
0	2937	143.577343125493	0.05
0	2939	143.677343125493	0.05
0	2941	143.777343125493	0.05
0	2942	143.83522507	0.0495
0	2942	143.83522507	0.0495
0	2943	143.877343125493	0.049668472221972
0	2945	143.977343125493	0.05
0	2947	144.077343125493	0.05
0	2949	144.177343125493	0.05
0	2951	144.277343125493	0.05
0	2952	144.281300044	0.05
0	2953	144.377343125493	0.05
0	2955	144.477343125493	0.05
0	2956	144.567987286	0.05
0	2957	144.577343125493	0.05
0	2959	144.677343125493	0.05
0	2961	144.777343125493	0.05
0	2962	144.840706321	0.05
0	2963	144.877343125493	0.05
0	2965	144.977343125493	0.05
0	2967	145.077343125493	0.05
0	2968	145.131406012	0.0495
0	2968	145.131406012	0.0495
0	2969	145.177343125493	0.049683748453972
0	2971	145.277343125493	0.05
0	2973	145.377343125493	0.05
0	2975	145.477343125493	0.05
0	2977	145.577343125493	0.05
0	2979	145.677343125493	0.05
0	2980	145.754089669	0.05
0	2981	145.777343125493	0.05
0	2983	145.828163043802	0.05
0	2985	145.928163043802	0.05
0	2987	146.028163043802	0.05
0	2989	146.128163043802	0.05
0	2991	146.228163043802	0.05
0	2993	146.328163043802	0.05
0	2995	146.428163043802	0.05
0	2995	146.439199246	0.05
0	2997	146.528163043802	0.0495
0	2997	146.528163043802	0.0495
0	2999	146.628163043802	0.0499
0	3001	146.728163043802	0.05
0	3003	146.828163043802	0.05
0	3003	146.868861001	0.05
0	3005	146.928163043802	0.05
0	3007	147.028163043802	0.05
0	3009	147.128163043802	0.05
0	3011	147.228163043802	0.05
0	3013	147.328163043802	0.05
0	3013	147.339690319	0.05
0	3015	147.428163043802	0.05
0	3017	147.528163043802	0.05
0	3018	147.62442607	0.05
0	3019	147.628163043802	0.05
0	3021	147.728163043802	0.05
0	3023	147.828163043802	0.05
0	3025	147.928163043802	0.0495
0	3025	147.928163043802	0.0495
0	3027	148.028163043802	0.0499
0	3027	148.037463856	0.049937203248792
0	3029	148.128163043802	0.05
0	3031	148.228163043802	0.05
0	3033	148.328163043802	0.05
0	3033	148.337386348	0.05
0	3035	148.428163043802	0.05
0	3037	148.528163043802	0.05
0	3039	148.628163043802	0.05
0	3041	148.728163043802	0.05
0	3043	148.828163043802	0.05
0	3043	148.833709204	0.05
0	3045	148.928163043802	0.05
0	3047	149.028163043802	0.05
0	3049	149.128163043802	0.05
0	3051	149.228163043802	0.05
0	3051	149.238140911	0.05
0	3053	149.328163043802	0.05
0	3055	149.428163043802	0.05
0	3057	149.528163043802	0.05
0	3059	149.628163043802	0.05
0	3060	149.720172934	0.05
0	3061	149.728163043802	0.05
0	3063	149.828163043802	0.05
0	3065	149.928163043802	0.05
0	3067	150.028163043802	0.05
0	3069	150.128163043802	0.05
0	3071	150.228163043802	0.05
0	3072	150.296795968	0.05
0	3073	150.328163043802	0.05
0	3075	150.428163043802	0.05
0	3077	150.528163043802	0.05
0	3079	150.628163043802	0.05
0	3081	150.728163043802	0.0495
0	3081	150.728163043802	0.0495
0	3082	150.815776108	0.049850452256792
0	3083	150.828163043802	0.0499
0	3085	150.928163043802	0.05
0	3087	151.028163043802	0.05
0	3089	151.128163043802	0.05
0	3091	151.228163043802	0.05
0	3093	151.328163043802	0.05
0	3093	151.329543421	0.05
0	3095	151.428163043802	0.05
0	3097	151.528163043802	0.05
0	3099	151.628163043802	0.05
0	3101	151.728163043802	0.05
0	3102	151.768206241101	0.05
0	3104	151.868206241101	0.05
0	3106	151.968206241101	0.05
0	3108	152.068206241101	0.05
0	3110	152.168206241101	0.05
0	3111	152.242399807	0.05
0	3112	152.268206241101	0.05
0	3114	152.368206241101	0.05
0	3116	152.468206241101	0.05
0	3118	152.568206241101	0.05
0	3120	152.668206241101	0.05
0	3122	152.768206241101	0.05
0	3123	152.832082573	0.05
0	3124	152.868206241101	0.05
0	3126	152.968206241101	0.05
0	3128	153.068206241101	0.05
0	3130	153.168206241101	0.05
0	3132	153.268206241101	0.05
0	3134	153.368206241101	0.05
0	3135	153.384084205	0.05
0	3136	153.468206241101	0.05
0	3138	153.568206241101	0.05
0	3140	153.668206241101	0.05
0	3142	153.768206241101	0.05
0	3143	153.84859345	0.05
0	3144	153.868206241101	0.05
0	3146	153.968206241101	0.05
0	3148	154.068206241101	0.05
0	3150	154.168206241101	0.05
0	3152	154.268206241101	0.05
0	3154	154.368206241101	0.05
0	3154	154.379115082	0.05
0	3156	154.468206241101	0.05
0	3158	154.568206241101	0.05
0	3160	154.668206241101	0.05
0	3162	154.768206241101	0.05
0	3163	154.813157497	0.05
0	3164	154.868206241101	0.05
0	3166	154.968206241101	0.05
0	3168	155.068206241101	0.05
0	3170	155.168206241101	0.05
0	3172	155.268206241101	0.05
0	3174	155.368206241101	0.05
0	3175	155.441100622	0.05
0	3176	155.468206241101	0.05
0	3178	155.568206241101	0.05
0	3180	155.668206241101	0.05
0	3182	155.768206241101	0.05
0	3184	155.868206241101	0.05
0	3186	155.968206241101	0.05
0	3187	156.008245297	0.05
0	3188	156.068206241101	0.05
0	3190	156.168206241101	0.05
0	3192	156.268206241101	0.05
0	3193	156.285946531	0.05
0	3194	156.368206241101	0.05
0	3196	156.468206241101	0.05
0	3198	156.568206241101	0.05
0	3200	156.668206241101	0.05
0	3202	156.768206241101	0.05
0	3203	156.803738815	0.05
0	3204	156.868206241101	0.05
0	3206	156.968206241101	0.05
0	3208	157.068206241101	0.05
0	3210	157.168206241101	0.05
0	3212	157.268206241101	0.05
0	3213	157.283387014	0.05
0	3214	157.368206241101	0.05
0	3216	157.468206241101	0.05
0	3218	157.568206241101	0.05
0	3220	157.668206241101	0.05
0	3221	157.74491722	0.05
0	3222	157.768206241101	0.05
0	3224	157.868206241101	0.05
0	3226	157.968206241101	0.05
0	3226	157.980025366	0.05
0	3228	158.068206241101	0.05
0	3230	158.168206241101	0.05
0	3232	158.268206241101	0.05
0	3234	158.368206241101	0.05
0	3235	158.455777741	0.05
0	3236	158.468206241101	0.05
0	3238	158.568206241101	0.05
0	3240	158.668206241101	0.05
0	3242	158.768206241101	0.05
0	3244	158.868206241101	0.05
0	3246	158.968206241101	0.05
0	3248	159.068206241101	0.05
0	3249	159.118871569	0.05
0	3250	159.168206241101	0.05
0	3252	159.268206241101	0.05
0	3254	159.368206241101	0.05
0	3256	159.468206241101	0.05
0	3258	159.568206241101	0.05
0	3260	159.668206241101	0.05
0	3261	159.732720988	0.05
0	3262	159.768206241101	0.05
0	3264	159.868206241101	0.05
0	3266	159.968206241101	0.05
0	3268	160.068206241101	0.05
0	3270	160.168206241101	0.05
0	3270	160.178323816	0.05
0	3272	160.268206241101	0.05
0	3274	160.368206241101	0.05
0	3276	160.468206241101	0.05
0	3278	160.568206241101	0.05
0	3280	160.668206241101	0.05
0	3281	160.686345304	0.05
0	3282	160.768206241101	0.05
0	3284	160.81933799884	0.05
0	3286	160.91933799884	0.05
0	3288	161.01933799884	0.05
0	3290	161.11933799884	0.05
0	3292	161.21933799884	0.05
0	3292	161.262724753	0.05
0	3294	161.31933799884	0.05
0	3296	161.41933799884	0.05
0	3298	161.51933799884	0.05
0	3300	161.61933799884	0.05
0	3302	161.71933799884	0.05
0	3302	161.733526306	0.05
0	3304	161.81933799884	0.05
0	3306	161.91933799884	0.05
0	3308	162.01933799884	0.05
0	3310	162.11933799884	0.05
0	3310	162.131855329	0.05
0	3312	162.21933799884	0.05
0	3314	162.31933799884	0.05
0	3316	162.41933799884	0.05
0	3318	162.51933799884	0.05
0	3319	162.588795751	0.05
0	3320	162.61933799884	0.05
0	3322	162.71933799884	0.05
0	3324	162.81933799884	0.05
0	3326	162.91933799884	0.05
0	3328	163.01933799884	0.05
0	3328	163.026594499	0.05
0	3330	163.11933799884	0.05
0	3332	163.21933799884	0.05
0	3334	163.31933799884	0.05
0	3336	163.41933799884	0.05
0	3338	163.51933799884	0.05
0	3338	163.561291255	0.05
0	3340	163.61933799884	0.05
0	3342	163.71933799884	0.05
0	3344	163.81933799884	0.05
0	3346	163.91933799884	0.05
0	3348	164.01933799884	0.05
0	3350	164.11933799884	0.05
0	3351	164.20371589	0.05
0	3352	164.21933799884	0.05
0	3354	164.31933799884	0.05
0	3356	164.41933799884	0.05
0	3358	164.51933799884	0.05
0	3360	164.61933799884	0.05
0	3361	164.697629455	0.05
0	3362	164.71933799884	0.05
0	3364	164.81933799884	0.05
0	3366	164.91933799884	0.05
0	3368	165.01933799884	0.05
0	3370	165.11933799884	0.05
0	3371	165.187776103	0.05
0	3372	165.21933799884	0.05
0	3374	165.31933799884	0.05
0	3376	165.41933799884	0.05
0	3378	165.51933799884	0.05
0	3380	165.61933799884	0.05
0	3382	165.71933799884	0.05
0	3382	165.72897442	0.05
0	3384	165.81933799884	0.05
0	3386	165.91933799884	0.05
0	3388	166.01933799884	0.05
0	3390	166.11933799884	0.05
0	3392	166.21933799884	0.05
0	3394	166.31933799884	0.05
0	3396	166.41933799884	0.05
0	3396	166.448335681	0.05
0	3398	166.51933799884	0.05
0	3400	166.61933799884	0.05
0	3402	166.71933799884	0.05
0	3404	166.81933799884	0.05
0	3406	166.91933799884	0.05
0	3408	167.01933799884	0.05
0	3408	167.04143494	0.05
0	3410	167.11933799884	0.05
0	3412	167.21933799884	0.05
0	3414	167.31933799884	0.05
0	3416	167.41933799884	0.05
0	3418	167.51933799884	0.05
0	3420	167.61933799884	0.05
0	3420	167.63042632	0.05
0	3422	167.70013019495	0.05
0	3425	167.80013019495	0.05
0	3427	167.90013019495	0.05
0	3429	168.00013019495	0.05
0	3430	168.09398167	0.05
0	3431	168.10013019495	0.05
0	3433	168.20013019495	0.05
0	3435	168.30013019495	0.05
0	3437	168.40013019495	0.05
0	3439	168.50013019495	0.05
0	3440	168.58469365	0.05
0	3441	168.60013019495	0.05
0	3443	168.70013019495	0.05
0	3445	168.80013019495	0.05
0	3447	168.90013019495	0.05
0	3449	169.00013019495	0.05
0	3449	169.040820217	0.05
0	3451	169.10013019495	0.05
0	3453	169.20013019495	0.05
0	3455	169.30013019495	0.05
0	3457	169.40013019495	0.05
0	3459	169.50013019495	0.05
0	3459	169.515483265	0.05
0	3461	169.60013019495	0.05
0	3463	169.70013019495	0.05
0	3465	169.80013019495	0.05
0	3467	169.90013019495	0.05
0	3467	169.928846077	0.05
0	3469	170.00013019495	0.05
0	3471	170.10013019495	0.05
0	3473	170.20013019495	0.05
0	3475	170.30013019495	0.05
0	3477	170.40013019495	0.05
0	3477	170.42156491	0.05
0	3479	170.50013019495	0.05
0	3481	170.60013019495	0.05
0	3483	170.70013019495	0.05
0	3485	170.80013019495	0.05
0	3487	170.90013019495	0.05
0	3487	170.979231763	0.05
0	3489	171.00013019495	0.05
0	3491	171.10013019495	0.05
0	3493	171.20013019495	0.05
0	3495	171.30013019495	0.05
0	3497	171.40013019495	0.05
0	3499	171.50013019495	0.05
0	3499	171.549946429	0.05
0	3501	171.60013019495	0.05
0	3503	171.70013019495	0.05
0	3505	171.80013019495	0.05
0	3506	171.85299937296	0.05
0	3508	171.90013019495	0.05
0	3510	172.00013019495	0.0495
0	3510	172.00013019495	0.0495
0	3510	172.065728011	0.0495
0	3512	172.10013019495	0.0495
0	3514	172.20013019495	0.0495
0	3516	172.30013019495	0.0495
0	3518	172.40013019495	0.0495
0	3520	172.50013019495	0.0495
0	3520	172.568760424	0.0495
0	3522	172.60013019495	0.0495
0	3524	172.70013019495	0.0495
0	3526	172.80013019495	0.0495
0	3528	172.90013019495	0.0495
0	3530	173.00013019495	0.0495
0	3532	173.10013019495	0.0495
0	3532	173.117945401	0.0495
0	3534	173.20013019495	0.0495
0	3536	173.30013019495	0.0495
0	3538	173.40013019495	0.049005
0	3538	173.40013019495	0.049005
0	3540	173.50013019495	0.049005
0	3542	173.60013019495	0.049005
0	3542	173.673832267	0.049005
0	3544	173.70013019495	0.049005
0	3546	173.80013019495	0.049005
0	3548	173.90013019495	0.049005
0	3550	174.00013019495	0.049005
0	3552	174.10013019495	0.049005
0	3552	174.149216269	0.049005
0	3554	174.20013019495	0.049005
0	3556	174.30013019495	0.049005
0	3558	174.40013019495	0.049005
0	3560	174.50013019495	0.049005
0	3562	174.60013019495	0.049005
0	3562	174.626957242	0.049005
0	3564	174.70013019495	0.049005
0	3566	174.80013019495	0.04851495
0	3566	174.80013019495	0.04851495
0	3568	174.90013019495	0.04851495
0	3570	175.00013019495	0.04851495
0	3572	175.10013019495	0.04851495
0	3574	175.20013019495	0.04851495
0	3574	175.272753451	0.04851495
0	3576	175.30013019495	0.04851495
0	3578	175.40013019495	0.04851495
0	3580	175.50013019495	0.04851495
0	3582	175.60013019495	0.04851495
0	3584	175.70013019495	0.04851495
0	3584	175.712755567	0.04851495
0	3586	175.80013019495	0.04851495
0	3588	175.90013019495	0.04851495
0	3588	175.963673518	0.04851495
0	3590	176.00013019495	0.04851495
0	3592	176.10013019495	0.04851495
0	3594	176.20013019495	0.0480298005
0	3594	176.20013019495	0.0480298005
0	3596	176.30013019495	0.0480298005
0	3598	176.40013019495	0.0480298005
0	3599	176.489727811	0.0480298005
0	3600	176.50013019495	0.0480298005
0	3602	176.60013019495	0.0480298005
0	3604	176.70013019495	0.0480298005
0	3604	176.748855289	0.0480298005
0	3606	176.80013019495	0.0480298005
0	3608	176.90013019495	0.0480298005
0	3610	177.00013019495	0.0480298005
0	3612	177.10013019495	0.0480298005
0	3614	177.20013019495	0.0480298005
0	3616	177.30013019495	0.0480298005
0	3616	177.34316104	0.0480298005
0	3618	177.40013019495	0.0480298005
0	3620	177.50013019495	0.0480298005
0	3622	177.60013019495	0.047549502495
0	3622	177.60013019495	0.047549502495
0	3624	177.70013019495	0.047549502495
0	3626	177.80013019495	0.047549502495
0	3628	177.90013019495	0.047549502495
0	3628	177.972727579	0.047549502495
0	3630	178.00013019495	0.047549502495
0	3632	178.10013019495	0.047549502495
0	3634	178.20013019495	0.047549502495
0	3636	178.30013019495	0.047549502495
0	3638	178.40013019495	0.047549502495
0	3638	178.475736454	0.047549502495
0	3640	178.50013019495	0.047549502495
0	3642	178.60013019495	0.047549502495
0	3644	178.70013019495	0.047549502495
0	3646	178.80013019495	0.047549502495
0	3648	178.90013019495	0.047549502495
0	3650	179.00013019495	0.047549502495
0	3650	179.044235437	0.047549502495
0	3652	179.10013019495	0.047549502495
0	3654	179.20013019495	0.047549502495
0	3656	179.30013019495	0.047549502495
0	3658	179.40013019495	0.047549502495
0	3660	179.50013019495	0.047549502495
0	3662	179.60013019495	0.047549502495
0	3664	179.70013019495	0.047549502495
0	3664	179.713344781	0.047549502495
0	3666	179.80013019495	0.047549502495
0	3668	179.90013019495	0.047549502495
0	3670	180.00013019495	0.047549502495
0	3672	180.10013019495	0.047549502495
0	3674	180.20013019495	0.047549502495
0	3674	180.261563668	0.047549502495
0	3676	180.30013019495	0.047549502495
0	3678	180.40013019495	0.047549502495
0	3680	180.50013019495	0.04707400747005
0	3680	180.50013019495	0.04707400747005
0	3682	180.60013019495	0.04707400747005
0	3684	180.70013019495	0.04707400747005
0	3686	180.80013019495	0.04707400747005
0	3688	180.90013019495	0.04707400747005
0	3689	180.983144992	0.04707400747005
0	3690	181.00013019495	0.04707400747005
0	3692	181.10013019495	0.04707400747005
0	3694	181.20013019495	0.04707400747005
0	3696	181.30013019495	0.04707400747005
0	3698	181.40013019495	0.04707400747005
0	3700	181.50013019495	0.04707400747005
0	3700	181.568889436	0.04707400747005
0	3702	181.60013019495	0.04707400747005
0	3704	181.70013019495	0.04707400747005
0	3706	181.80013019495	0.04707400747005
0	3708	181.90013019495	0.04707400747005
0	3710	182.00013019495	0.04660326739535
0	3710	182.00013019495	0.04660326739535
0	3710	182.028335281	0.04660326739535
0	3712	182.10013019495	0.04660326739535
0	3714	182.20013019495	0.04660326739535
0	3716	182.30013019495	0.04660326739535
0	3716	182.319538114	0.04660326739535
0	3718	182.40013019495	0.04660326739535
0	3720	182.50013019495	0.04660326739535
0	3722	182.60013019495	0.04660326739535
0	3724	182.70013019495	0.04660326739535
0	3725	182.783386684	0.04660326739535
0	3726	182.80013019495	0.04660326739535
0	3728	182.90013019495	0.04660326739535
0	3730	183.00013019495	0.04660326739535
0	3732	183.10013019495	0.04660326739535
0	3734	183.20013019495	0.04660326739535
0	3735	183.299260264	0.04660326739535
0	3736	183.30013019495	0.046137234721396
0	3736	183.30013019495	0.046137234721396
0	3738	183.40013019495	0.046137234721396
0	3740	183.50013019495	0.046137234721396
0	3742	183.60013019495	0.046137234721396
0	3744	183.70013019495	0.046137234721396
0	3746	183.80013019495	0.046137234721396
0	3746	183.841458022	0.046137234721396
0	3748	183.90013019495	0.046137234721396
0	3750	184.00013019495	0.046137234721396
0	3752	184.10013019495	0.046137234721396
0	3754	184.20013019495	0.046137234721396
0	3756	184.30013019495	0.046137234721396
0	3758	184.40013019495	0.046137234721396
0	3758	184.453059733	0.046137234721396
0	3760	184.50013019495	0.046137234721396
0	3762	184.60013019495	0.046137234721396
0	3764	184.70013019495	0.046137234721396
0	3766	184.80013019495	0.045675862374182
0	3766	184.80013019495	0.045675862374182
0	3768	184.90013019495	0.045675862374182
0	3770	185.00013019495	0.045675862374182
0	3772	185.10013019495	0.045675862374182
0	3772	185.170408672	0.045675862374182
0	3774	185.20013019495	0.045675862374182
0	3776	185.30013019495	0.045675862374182
0	3778	185.40013019495	0.045675862374182
0	3780	185.50013019495	0.045675862374182
0	3782	185.60013019495	0.045675862374182
0	3784	185.70013019495	0.045675862374182
0	3786	185.80013019495	0.045675862374182
0	3788	185.90013019495	0.045675862374182
0	3790	186.00013019495	0.045675862374182
0	3790	186.059126875	0.045675862374182
0	3792	186.10013019495	0.045675862374182
0	3794	186.20013019495	0.045675862374182
0	3796	186.30013019495	0.04521910375044
0	3796	186.30013019495	0.04521910375044
0	3798	186.40013019495	0.04521910375044
0	3800	186.50013019495	0.04521910375044
0	3802	186.60013019495	0.04521910375044
0	3802	186.615101236	0.04521910375044
0	3804	186.70013019495	0.04521910375044
0	3806	186.80013019495	0.04521910375044
0	3808	186.90013019495	0.04521910375044
0	3810	187.00013019495	0.04521910375044
0	3812	187.10013019495	0.04521910375044
0	3814	187.20013019495	0.04521910375044
0	3815	187.296990019	0.04521910375044
0	3816	187.30013019495	0.04521910375044
0	3818	187.40013019495	0.04521910375044
0	3820	187.50013019495	0.04521910375044
0	3822	187.60013019495	0.04521910375044
0	3824	187.70013019495	0.04521910375044
0	3826	187.80013019495	0.044766912712936
0	3826	187.80013019495	0.044766912712936
0	3826	187.851594202	0.044766912712936
0	3828	187.90013019495	0.044766912712936
0	3830	188.00013019495	0.044766912712936
0	3831	188.081903857	0.044766912712936
0	3832	188.10013019495	0.044766912712936
0	3834	188.20013019495	0.044766912712936
0	3836	188.30013019495	0.044766912712936
0	3838	188.40013019495	0.044766912712936
0	3840	188.50013019495	0.044766912712936
0	3840	188.538997945	0.044766912712936
0	3842	188.60013019495	0.044766912712936
0	3845	188.70013019495	0.044766912712936
0	3847	188.80013019495	0.044766912712936
0	3849	188.90013019495	0.044766912712936
0	3851	189.00013019495	0.044766912712936
0	3851	189.070415377	0.044766912712936
0	3853	189.10013019495	0.044766912712936
0	3855	189.20013019495	0.044766912712936
0	3857	189.30013019495	0.044766912712936
0	3859	189.40013019495	0.044766912712936
0	3861	189.50013019495	0.044766912712936
0	3862	189.577630471	0.044766912712936
0	3863	189.60013019495	0.044766912712936
0	3865	189.70013019495	0.044766912712936
0	3867	189.80013019495	0.044766912712936
0	3869	189.90013019495	0.044766912712936
0	3871	190.00013019495	0.044766912712936
0	3872	190.086966037	0.044766912712936
0	3873	190.10013019495	0.044766912712936
0	3875	190.20013019495	0.044766912712936
0	3877	190.30013019495	0.044766912712936
0	3879	190.40013019495	0.044766912712936
0	3881	190.50013019495	0.044766912712936
0	3883	190.60013019495	0.044766912712936
0	3885	190.70013019495	0.044766912712936
0	3885	190.713628708	0.044766912712936
0	3887	190.80013019495	0.044766912712936
0	3889	190.90013019495	0.044766912712936
0	3891	191.00013019495	0.044766912712936
0	3893	191.10013019495	0.044766912712936
0	3895	191.20013019495	0.044766912712936
0	3895	191.236267558	0.044766912712936
0	3897	191.30013019495	0.044766912712936
0	3899	191.40013019495	0.044766912712936
0	3901	191.50013019495	0.044766912712936
0	3903	191.60013019495	0.044766912712936
0	3905	191.70013019495	0.044766912712936
0	3905	191.754486334	0.044766912712936
0	3907	191.80013019495	0.044766912712936
0	3909	191.90013019495	0.044766912712936
0	3911	192.00013019495	0.044766912712936
0	3911	192.011410492	0.044766912712936
0	3913	192.10013019495	0.044766912712936
0	3915	192.20013019495	0.044766912712936
0	3915	192.253295194	0.044766912712936
0	3917	192.30013019495	0.044766912712936
0	3919	192.40013019495	0.044766912712936
0	3920	192.490962322	0.044766912712936
0	3921	192.50013019495	0.044766912712936
0	3923	192.60013019495	0.044766912712936
0	3925	192.70013019495	0.044766912712936
0	3926	192.783087832	0.044766912712936
0	3927	192.80013019495	0.044766912712936
0	3929	192.90013019495	0.044766912712936
0	3931	193.00013019495	0.044766912712936
0	3933	193.10013019495	0.044766912712936
0	3935	193.20013019495	0.044766912712936
0	3935	193.255288705	0.044319243585806
0	3935	193.255288705	0.044319243585806
0	3937	193.30013019495	0.044319243585806
0	3939	193.40013019495	0.044319243585806
0	3941	193.50013019495	0.044319243585806
0	3941	193.550345122	0.044319243585806
0	3943	193.60013019495	0.044319243585806
0	3945	193.70013019495	0.044319243585806
0	3947	193.80013019495	0.044319243585806
0	3949	193.90013019495	0.044319243585806
0	3949	193.943049673	0.044319243585806
0	3951	194.00013019495	0.044319243585806
0	3953	194.10013019495	0.044319243585806
0	3955	194.20013019495	0.044319243585806
0	3957	194.30013019495	0.044319243585806
0	3958	194.369691502	0.044319243585806
0	3959	194.40013019495	0.044319243585806
0	3961	194.50013019495	0.044319243585806
0	3963	194.60013019495	0.044319243585806
0	3965	194.70013019495	0.044319243585806
0	3967	194.80013019495	0.044319243585806
0	3967	194.804742505	0.044319243585806
0	3969	194.90013019495	0.044319243585806
0	3971	195.00013019495	0.044319243585806
0	3973	195.10013019495	0.044319243585806
0	3975	195.20013019495	0.044319243585806
0	3977	195.30013019495	0.044319243585806
0	3977	195.338669056	0.044319243585806
0	3979	195.40013019495	0.044319243585806
0	3981	195.50013019495	0.044319243585806
0	3983	195.60013019495	0.044319243585806
0	3985	195.70013019495	0.044319243585806
0	3987	195.80013019495	0.044319243585806
0	3989	195.90013019495	0.044319243585806
0	3989	195.905817871	0.044319243585806
0	3991	196.00013019495	0.044319243585806
0	3993	196.10013019495	0.044319243585806
0	3995	196.20013019495	0.044319243585806
0	3997	196.30013019495	0.044319243585806
0	3999	196.40013019495	0.044319243585806
0	4000	196.489635295	0.044319243585806
0	4001	196.50013019495	0.044319243585806
0	4003	196.60013019495	0.044319243585806
0	4005	196.70013019495	0.044319243585806
0	4007	196.80013019495	0.044319243585806
0	4009	196.90013019495	0.044319243585806
0	4010	196.982121847	0.044319243585806
0	4011	197.00013019495	0.044319243585806
0	4013	197.10013019495	0.044319243585806
0	4015	197.20013019495	0.044319243585806
0	4017	197.30013019495	0.044319243585806
0	4019	197.40013019495	0.044319243585806
0	4019	197.423637478	0.043876051149948
0	4019	197.423637478	0.043876051149948
0	4021	197.50013019495	0.043876051149948
0	4023	197.60013019495	0.043876051149948
0	4025	197.70013019495	0.043876051149948
0	4027	197.80013019495	0.043876051149948
0	4029	197.90013019495	0.043876051149948
0	4029	197.915659906	0.043876051149948
0	4031	198.00013019495	0.043876051149948
0	4033	198.10013019495	0.043876051149948
0	4035	198.20013019495	0.043876051149948
0	4037	198.30013019495	0.043876051149948
0	4039	198.40013019495	0.043876051149948
0	4039	198.405132466	0.043876051149948
0	4041	198.50013019495	0.043876051149948
0	4043	198.60013019495	0.043876051149948
0	4045	198.70013019495	0.043876051149948
0	4047	198.80013019495	0.043876051149948
0	4048	198.873494026	0.043876051149948
0	4049	198.90013019495	0.043876051149948
0	4051	199.00013019495	0.043876051149948
0	4053	199.10013019495	0.043876051149948
0	4055	199.20013019495	0.043876051149948
0	4057	199.30013019495	0.043876051149948
0	4058	199.366659016	0.043876051149948
0	4059	199.40013019495	0.043876051149948
0	4061	199.50013019495	0.043876051149948
0	4063	199.60013019495	0.043876051149948
0	4065	199.70013019495	0.043876051149948
0	4067	199.80013019495	0.043876051149948
0	4067	199.846716037	0.043876051149948
0	4069	199.90013019495	0.043876051149948
0	4071	200.00013019495	0.043876051149948
0	4073	200.10013019495	0.043876051149948
0	4075	200.20013019495	0.043876051149948
0	4076	200.283929893	0.043876051149948
0	4077	200.30013019495	0.043876051149948
0	4079	200.40013019495	0.043876051149948
0	4081	200.50013019495	0.043876051149948
0	4083	200.60013019495	0.043876051149948
0	4085	200.70013019495	0.043876051149948
0	4085	200.752677442	0.043876051149948
0	4087	200.80013019495	0.043876051149948
0	4089	200.90013019495	0.043876051149948
0	4091	201.00013019495	0.043876051149948
0	4093	201.10013019495	0.043876051149948
0	4095	201.20013019495	0.043876051149948
0	4097	201.30013019495	0.043876051149948
0	4097	201.328679698	0.043876051149948
0	4099	201.40013019495	0.043876051149948
0	4101	201.50013019495	0.043876051149948
0	4103	201.60013019495	0.043876051149948
0	4105	201.70013019495	0.043876051149948
0	4107	201.80013019495	0.043876051149948
[...]
2	10693	521.49654061763	0.05
2	10693	521.507097538	0.05
2	10695	521.59654061763	0.05
2	10697	521.69654061763	0.05
2	10699	521.79654061763	0.05
2	10701	521.89654061763	0.05
2	10702	521.95907554	0.05
2	10703	521.966001209485	0.05
2	10704	521.99654061763	0.05
2	10706	522.09654061763	0.05
2	10708	522.19654061763	0.05
2	10710	522.29654061763	0.05
2	10712	522.39654061763	0.05
2	10712	522.398477734	0.05
2	10714	522.49654061763	0.05
2	10716	522.59654061763	0.05
2	10718	522.69654061763	0.05
2	10720	522.79654061763	0.05
2	10722	522.89654061763	0.0495
2	10722	522.89654061763	0.0495
2	10724	522.99654061763	0.0495
2	10724	523.018348792	0.0495
2	10726	523.09654061763	0.0495
2	10728	523.19654061763	0.0495
2	10730	523.29654061763	0.0495
2	10732	523.39654061763	0.0495
2	10734	523.49654061763	0.0495
2	10735	523.551580246	0.0495
2	10736	523.59654061763	0.0495
2	10738	523.69654061763	0.0495
2	10740	523.79654061763	0.0495
2	10742	523.89654061763	0.0495
2	10744	523.99654061763	0.0495
2	10746	524.09654061763	0.0495
2	10748	524.19654061763	0.0495
2	10748	524.226950698	0.0495
2	10750	524.29654061763	0.049005
2	10750	524.29654061763	0.049005
2	10752	524.39654061763	0.049005
2	10754	524.49654061763	0.049005
2	10756	524.59654061763	0.049005
2	10758	524.69654061763	0.049005
2	10760	524.79654061763	0.049005
2	10761	524.895070882	0.049005
2	10762	524.89654061763	0.049005
2	10764	524.99654061763	0.049005
2	10766	525.09654061763	0.049005
2	10768	525.19654061763	0.049005
2	10770	525.29654061763	0.049005
2	10772	525.39654061763	0.049005
2	10772	525.444970675	0.049005
2	10774	525.49654061763	0.049005
2	10776	525.59654061763	0.049005
2	10778	525.69654061763	0.049005
2	10780	525.79654061763	0.04851495
2	10780	525.79654061763	0.04851495
2	10782	525.89654061763	0.04851495
2	10784	525.99654061763	0.04851495
2	10784	526.042239166	0.04851495
2	10786	526.09654061763	0.04851495
2	10788	526.19654061763	0.04851495
2	10790	526.29654061763	0.04851495
2	10790	526.320570523	0.04851495
2	10792	526.39654061763	0.04851495
2	10794	526.49654061763	0.04851495
2	10796	526.59654061763	0.04851495
2	10796	526.605076216	0.04851495
2	10798	526.69654061763	0.04851495
2	10800	526.79654061763	0.04851495
2	10802	526.89654061763	0.04851495
2	10802	526.903314109	0.04851495
2	10804	526.99654061763	0.04851495
2	10807	527.09654061763	0.04851495
2	10809	527.19654061763	0.04851495
2	10811	527.29654061763	0.04851495
2	10813	527.39654061763	0.04851495
2	10813	527.432440186	0.04851495
2	10815	527.49654061763	0.04851495
2	10817	527.59654061763	0.04851495
2	10819	527.69654061763	0.04851495
2	10821	527.79654061763	0.04851495
2	10823	527.89654061763	0.04851495
2	10823	527.900592667	0.04851495
2	10825	527.99654061763	0.04851495
2	10827	528.09654061763	0.04851495
2	10829	528.19654061763	0.04851495
2	10831	528.29654061763	0.04851495
2	10833	528.39654061763	0.04851495
2	10834	528.451373581	0.0480298005
2	10834	528.451373581	0.0480298005
2	10835	528.49654061763	0.0480298005
2	10837	528.59654061763	0.0480298005
2	10839	528.69654061763	0.0480298005
2	10841	528.79654061763	0.0480298005
2	10843	528.89654061763	0.0480298005
2	10845	528.99654061763	0.0480298005
2	10846	529.079833855	0.0480298005
2	10847	529.09654061763	0.0480298005
2	10849	529.19654061763	0.0480298005
2	10851	529.29654061763	0.0480298005
2	10853	529.39654061763	0.0480298005
2	10855	529.49654061763	0.0480298005
2	10857	529.59654061763	0.0480298005
2	10859	529.69654061763	0.0480298005
2	10859	529.735927495	0.0480298005
2	10861	529.79654061763	0.0480298005
2	10863	529.89654061763	0.0480298005
2	10865	529.99654061763	0.0480298005
2	10867	530.09654061763	0.0480298005
2	10869	530.19654061763	0.0480298005
2	10869	530.222920624	0.0480298005
2	10871	530.29654061763	0.0480298005
2	10873	530.39654061763	0.0480298005
2	10875	530.49654061763	0.0480298005
2	10877	530.59654061763	0.0480298005
2	10879	530.69654061763	0.0480298005
2	10880	530.759764309	0.0480298005
2	10881	530.79654061763	0.0480298005
2	10883	530.89654061763	0.0480298005
2	10885	530.96121769498	0.0480298005
2	10886	530.99654061763	0.0481710921906
2	10888	531.07876756998	0.0485
2	10889	531.09654061763	0.0485710921906
2	10891	531.19654061763	0.0489710921906
2	10892	531.20376756998	0.049
2	10892	531.237414877	0.048643243335799
2	10892	531.237414877	0.048643243335799
2	10894	531.29654061763	0.048879746298319
2	10895	531.32876756998	0.0495
2	10897	531.39654061763	0.0497710921906
2	10899	531.45376756998	0.05
2	10900	531.49654061763	0.05
2	10902	531.59654061763	0.05
2	10904	531.69654061763	0.05
2	10906	531.79654061763	0.05
2	10906	531.810290314	0.05
2	10908	531.89654061763	0.05
2	10910	531.99654061763	0.05
2	10912	532.09654061763	0.05
2	10914	532.19654061763	0.05
2	10916	532.29654061763	0.05
2	10916	532.34585683	0.05
2	10918	532.39654061763	0.05
2	10920	532.49654061763	0.05
2	10922	532.59654061763	0.0495
2	10922	532.59654061763	0.0495
2	10924	532.69654061763	0.0499
2	10925	532.781495704	0.05
2	10926	532.79654061763	0.05
2	10928	532.89654061763	0.05
2	10930	532.99654061763	0.05
2	10932	533.09654061763	0.05
2	10934	533.19654061763	0.05
2	10936	533.29654061763	0.05
2	10937	533.393844511	0.05
2	10938	533.39654061763	0.05
2	10940	533.49654061763	0.05
2	10942	533.59654061763	0.05
2	10944	533.69654061763	0.05
2	10946	533.79654061763	0.05
2	10948	533.89654061763	0.05
2	10948	533.897649223	0.05
2	10950	533.99654061763	0.0495
2	10950	533.99654061763	0.0495
2	10952	534.09654061763	0.0499
2	10953	534.187111618	0.05
2	10954	534.19654061763	0.05
2	10956	534.29654061763	0.05
2	10958	534.39654061763	0.05
2	10960	534.49654061763	0.05
2	10962	534.59654061763	0.05
2	10964	534.69654061763	0.05
2	10966	534.79654061763	0.05
2	10966	534.813798163	0.05
2	10968	534.89654061763	0.05
2	10970	534.99654061763	0.05
2	10972	535.09654061763	0.05
2	10974	535.19654061763	0.05
2	10976	535.29654061763	0.05
2	10977	535.378854052	0.05
2	10978	535.39654061763	0.0495
2	10978	535.39654061763	0.0495
2	10980	535.49654061763	0.0499
2	10982	535.59654061763	0.05
2	10984	535.69654061763	0.05
2	10986	535.79654061763	0.05
2	10988	535.89654061763	0.05
2	10989	535.950164572	0.05
2	10990	535.99654061763	0.05
2	10992	536.09654061763	0.05
2	10994	536.19654061763	0.05
2	10996	536.29654061763	0.05
2	10998	536.39654061763	0.05
2	10999	536.457806461	0.05
2	11000	536.49654061763	0.05
2	11002	536.59654061763	0.05
2	11004	536.69654061763	0.05
2	11006	536.79654061763	0.05
2	11008	536.89654061763	0.0495
2	11008	536.89654061763	0.0495
2	11009	536.951844697	0.04972121631748
2	11010	536.99654061763	0.0499
2	11012	537.09654061763	0.05
2	11014	537.19654061763	0.05
2	11016	537.29654061763	0.05
2	11018	537.39654061763	0.05
2	11020	537.49654061763	0.05
2	11021	537.594099631	0.05
2	11022	537.59654061763	0.05
2	11024	537.69654061763	0.05
2	11026	537.79654061763	0.05
2	11028	537.89654061763	0.05
2	11030	537.99654061763	0.05
2	11032	538.09654061763	0.05
2	11034	538.19654061763	0.05
2	11035	538.232316862	0.05
2	11036	538.29654061763	0.0495
2	11036	538.29654061763	0.0495
2	11038	538.39654061763	0.0499
2	11040	538.49654061763	0.05
2	11042	538.59654061763	0.05
2	11043	538.677207268	0.05
2	11044	538.69654061763	0.05
2	11046	538.79654061763	0.05
2	11048	538.89654061763	0.05
2	11050	538.99654061763	0.05
2	11052	539.09654061763	0.05
2	11054	539.19654061763	0.05
2	11055	539.2295584	0.05
2	11056	539.29654061763	0.05
2	11058	539.39654061763	0.05
2	11060	539.49654061763	0.05
2	11062	539.59654061763	0.05
2	11064	539.69654061763	0.05
2	11065	539.757262291	0.05
2	11066	539.79654061763	0.05
2	11068	539.89654061763	0.05
2	11070	539.99654061763	0.05
2	11072	540.09654061763	0.05
2	11074	540.19654061763	0.05
2	11075	540.268640611	0.05
2	11076	540.29654061763	0.05
2	11078	540.39654061763	0.05
2	11080	540.49654061763	0.05
2	11081	540.526380922	0.05
2	11082	540.59654061763	0.05
2	11084	540.69654061763	0.05
2	11086	540.79654061763	0.05
2	11088	540.89654061763	0.05
2	11090	540.99654061763	0.05
2	11091	541.08342988	0.05
2	11092	541.09654061763	0.0495
2	11092	541.09654061763	0.0495
2	11094	541.19654061763	0.0499
2	11096	541.29654061763	0.05
2	11098	541.39654061763	0.05
2	11100	541.49654061763	0.05
2	11102	541.59654061763	0.05
2	11102	541.601322031	0.05
2	11104	541.69654061763	0.05
2	11106	541.79654061763	0.05
2	11108	541.89654061763	0.05
2	11108	541.897998775	0.05
2	11110	541.99654061763	0.05
2	11112	542.09654061763	0.05
2	11114	542.19654061763	0.05
2	11116	542.29654061763	0.05
2	11118	542.39654061763	0.05
2	11119	542.418782956	0.05
2	11120	542.49654061763	0.0495
2	11120	542.49654061763	0.0495
2	11122	542.59654061763	0.0499
2	11124	542.69654061763	0.05
2	11124	542.707896991	0.05
2	11126	542.79654061763	0.05
2	11128	542.89654061763	0.05
2	11130	542.99654061763	0.05
2	11132	543.09654061763	0.05
2	11133	543.19581217	0.05
2	11134	543.19654061763	0.05
2	11136	543.29654061763	0.05
2	11138	543.39654061763	0.05
2	11140	543.49654061763	0.05
2	11142	543.59654061763	0.05
2	11144	543.69654061763	0.05
2	11145	543.771036568	0.05
2	11146	543.79654061763	0.05
2	11148	543.89654061763	0.0495
2	11148	543.89654061763	0.0495
2	11150	543.99654061763	0.0499
2	11152	544.09654061763	0.05
2	11154	544.19654061763	0.05
2	11156	544.29654061763	0.05
2	11158	544.39654061763	0.05
2	11159	544.451622085	0.05
2	11160	544.49654061763	0.05
2	11162	544.59654061763	0.05
2	11164	544.69654061763	0.05
2	11166	544.79654061763	0.05
2	11168	544.89654061763	0.05
2	11170	544.99654061763	0.05
2	11172	545.09654061763	0.05
2	11174	545.19654061763	0.05
2	11176	545.29654061763	0.05
2	11177	545.374183678	0.05
2	11178	545.39654061763	0.0495
2	11178	545.39654061763	0.0495
2	11180	545.49654061763	0.0499
2	11182	545.59654061763	0.05
2	11184	545.69654061763	0.05
2	11186	545.79654061763	0.05
2	11188	545.89654061763	0.05
2	11189	545.957087974	0.05
2	11190	545.99654061763	0.05
2	11192	546.09654061763	0.05
2	11194	546.19654061763	0.05
2	11196	546.29654061763	0.05
2	11198	546.39654061763	0.05
2	11200	546.49654061763	0.05
2	11201	546.582540724	0.05
2	11202	546.59654061763	0.05
2	11204	546.69654061763	0.05
2	11206	546.79654061763	0.05
2	11208	546.89654061763	0.0495
2	11208	546.89654061763	0.0495
2	11210	546.99654061763	0.0499
2	11212	547.09654061763	0.05
2	11214	547.19654061763	0.05
2	11215	547.22249716	0.05
2	11216	547.29654061763	0.05
2	11218	547.39654061763	0.05
2	11220	547.49654061763	0.05
2	11222	547.59654061763	0.05
2	11224	547.69654061763	0.05
2	11226	547.79654061763	0.05
2	11227	547.845099268	0.05
2	11228	547.89654061763	0.05
2	11230	547.99654061763	0.05
2	11232	548.09654061763	0.05
2	11234	548.19654061763	0.05
2	11236	548.29654061763	0.05
2	11238	548.39654061763	0.0495
2	11238	548.39654061763	0.0495
2	11240	548.49654061763	0.0499
2	11242	548.59654061763	0.05
2	11243	548.616751759	0.05
2	11244	548.69654061763	0.05
2	11246	548.79654061763	0.05
2	11248	548.89654061763	0.05
2	11250	548.99654061763	0.05
2	11252	549.09654061763	0.05
2	11253	549.125532913	0.05
2	11254	549.19654061763	0.05
2	11256	549.29654061763	0.05
2	11258	549.39654061763	0.05
2	11260	549.49654061763	0.05
2	11261	549.593651362	0.05
2	11262	549.59654061763	0.05
2	11264	549.69654061763	0.05
2	11266	549.79654061763	0.0495
2	11266	549.79654061763	0.0495
2	11268	549.89654061763	0.0499
2	11270	549.99654061763	0.05
2	11272	550.09654061763	0.05
2	11274	550.19654061763	0.05
2	11275	550.25565574	0.05
2	11276	550.29654061763	0.05
2	11278	550.39654061763	0.05
2	11280	550.49654061763	0.05
2	11282	550.59654061763	0.05
2	11284	550.69654061763	0.05
2	11286	550.79654061763	0.05
2	11287	550.83546832	0.05
2	11288	550.89654061763	0.05
2	11290	550.99654061763	0.05
2	11292	551.09654061763	0.05
2	11294	551.19654061763	0.05
2	11296	551.29654061763	0.0495
2	11296	551.29654061763	0.0495
2	11298	551.39654061763	0.0499
2	11300	551.49654061763	0.05
2	11301	551.563067245	0.05
2	11302	551.59654061763	0.05
2	11304	551.69654061763	0.05
2	11306	551.79654061763	0.05
2	11308	551.89654061763	0.05
2	11310	551.99654061763	0.05
2	11312	552.09654061763	0.05
2	11314	552.19654061763	0.05
2	11315	552.238272388	0.05
2	11316	552.29654061763	0.05
2	11318	552.39654061763	0.05
2	11320	552.49654061763	0.05
2	11322	552.59654061763	0.05
2	11324	552.69654061763	0.05
2	11325	552.767009722	0.05
2	11326	552.79654061763	0.05
2	11328	552.89654061763	0.05
2	11331	552.99654061763	0.05
2	11334	553.09654061763	0.05
2	11337	553.19654061763	0.05
2	11338	553.257139951	0.05
2	11339	553.29654061763	0.05
2	11342	553.39654061763	0.05
2	11345	553.49654061763	0.05
2	11347	553.59654061763	0.05
2	11349	553.69654061763	0.05
2	11350	553.750198156	0.05
2	11351	553.79654061763	0.05
2	11353	553.89654061763	0.05
2	11355	553.99654061763	0.05
2	11357	554.09654061763	0.05
2	11359	554.19654061763	0.05
2	11360	554.256227578	0.05
2	11361	554.29654061763	0.05
2	11363	554.39654061763	0.05
2	11365	554.49654061763	0.05
2	11367	554.59654061763	0.05
2	11369	554.69654061763	0.05
2	11371	554.79654061763	0.05
2	11373	554.89654061763	0.05
2	11374	554.959549393	0.05
2	11375	554.99654061763	0.05
2	11377	555.09654061763	0.05
2	11379	555.19654061763	0.05
2	11381	555.29654061763	0.05
2	11382	555.368943847	0.0495
2	11382	555.368943847	0.0495
2	11383	555.39654061763	0.04961038708252
2	11385	555.49654061763	0.05
2	11387	555.59654061763	0.05
2	11388	555.665730007	0.05
2	11389	555.69654061763	0.05
2	11391	555.79654061763	0.05
2	11393	555.89654061763	0.05
2	11395	555.99654061763	0.05
2	11397	556.09654061763	0.05
2	11398	556.179017833	0.05
2	11399	556.19654061763	0.05
2	11401	556.29654061763	0.05
2	11403	556.39654061763	0.05
2	11404	556.443306163	0.05
2	11405	556.49654061763	0.05
2	11407	556.59654061763	0.05
2	11409	556.69654061763	0.05
2	11411	556.79654061763	0.05
2	11413	556.835589853579	0.05
2	11415	556.935589853579	0.05
2	11415	557.003579362	0.05
2	11417	557.035589853579	0.05
2	11419	557.135589853579	0.05
2	11421	557.235589853579	0.05
2	11423	557.335589853579	0.05
2	11425	557.435589853579	0.05
2	11425	557.465310859	0.05
2	11427	557.535589853579	0.05
2	11429	557.635589853579	0.05
2	11431	557.735589853579	0.05
2	11433	557.835589853579	0.05
2	11435	557.935589853579	0.05
2	11435	557.992341055	0.05
2	11437	558.035589853579	0.05
2	11439	558.135589853579	0.05
2	11441	558.235589853579	0.05
2	11443	558.335589853579	0.05
2	11445	558.435589853579	0.05
2	11445	558.439476439	0.05
2	11447	558.535589853579	0.05
2	11449	558.635589853579	0.05
2	11451	558.735589853579	0.05
2	11453	558.835589853579	0.05
2	11453	558.895710343	0.05
2	11455	558.935589853579	0.05
2	11457	559.035589853579	0.05
2	11459	559.135589853579	0.05
2	11461	559.235589853579	0.05
2	11464	559.335589853579	0.05
2	11464	559.4049856	0.05
2	11466	559.435589853579	0.0495
2	11466	559.435589853579	0.0495
2	11468	559.535589853579	0.0499
2	11470	559.635589853579	0.05
2	11472	559.735589853579	0.05
2	11474	559.835589853579	0.05
2	11476	559.935589853579	0.05
2	11476	559.970733238	0.05
2	11478	560.035589853579	0.05
2	11480	560.135589853579	0.05
2	11482	560.235589853579	0.05
2	11484	560.335589853579	0.05
2	11485	560.426495026	0.05
2	11486	560.435589853579	0.05
2	11488	560.535589853579	0.05
2	11490	560.635589853579	0.05
2	11492	560.735589853579	0.05
2	11494	560.835589853579	0.05
2	11494	560.900125351	0.0495
2	11494	560.900125351	0.0495
2	11496	560.935589853579	0.049641858010316
2	11498	561.035589853579	0.05
2	11500	561.135589853579	0.05
2	11502	561.235589853579	0.05
2	11504	561.335589853579	0.05
2	11504	561.367848514	0.05
2	11506	561.435589853579	0.05
2	11508	561.535589853579	0.05
2	11510	561.635589853579	0.05
2	11512	561.735589853579	0.05
2	11514	561.835589853579	0.05
2	11514	561.853741237	0.05
2	11516	561.935589853579	0.05
2	11518	562.035589853579	0.05
2	11520	562.135589853579	0.05
2	11522	562.235589853579	0.05
2	11523	562.320307627	0.05
2	11524	562.335589853579	0.05
2	11526	562.435589853579	0.05
2	11528	562.535589853579	0.05
2	11530	562.635589853579	0.05
2	11532	562.735589853579	0.05
2	11532	562.790484802	0.05
2	11534	562.835589853579	0.05
2	11536	562.935589853579	0.05
2	11538	563.035589853579	0.05
2	11540	563.135589853579	0.05
2	11542	563.235589853579	0.05
2	11544	563.335589853579	0.05
2	11546	563.435589853579	0.05
2	11546	563.452315456	0.05
2	11548	563.535589853579	0.05
2	11550	563.635589853579	0.05
2	11552	563.735589853579	0.0495
2	11552	563.735589853579	0.0495
2	11554	563.835589853579	0.0499
2	11556	563.935589853579	0.05
2	11558	564.035589853579	0.05
2	11558	564.051820186	0.05
2	11560	564.135589853579	0.05
2	11562	564.235589853579	0.05
2	11564	564.335589853579	0.05
2	11566	564.435589853579	0.05
2	11568	564.535589853579	0.05
2	11568	564.603495472	0.05
2	11570	564.635589853579	0.05
2	11572	564.735589853579	0.05
2	11574	564.835589853579	0.05
2	11576	564.935589853579	0.05
2	11578	565.035589853579	0.05
2	11580	565.135589853579	0.05
2	11582	565.235589853579	0.0495
2	11582	565.235589853579	0.0495
2	11582	565.250455492	0.049559462553684
2	11584	565.335589853579	0.0499
2	11586	565.435589853579	0.05
2	11588	565.535589853579	0.05
2	11590	565.635589853579	0.05
2	11592	565.735589853579	0.05
2	11592	565.807724161	0.05
2	11594	565.835589853579	0.05
2	11596	565.935589853579	0.05
2	11598	566.035589853579	0.05
2	11600	566.135589853579	0.05
2	11602	566.235589853579	0.05
2	11604	566.335589853579	0.05
2	11606	566.435589853579	0.05
2	11606	566.474570284	0.05
2	11608	566.535589853579	0.05
2	11610	566.635589853579	0.0495
2	11610	566.635589853579	0.0495
2	11612	566.735589853579	0.0499
2	11614	566.835589853579	0.05
2	11615	566.932172449	0.05
2	11616	566.935589853579	0.05
2	11618	567.035589853579	0.05
2	11620	567.135589853579	0.05
2	11622	567.235589853579	0.05
2	11624	567.335589853579	0.05
2	11624	567.383065726	0.05
2	11626	567.435589853579	0.05
2	11628	567.535589853579	0.05
2	11630	567.635589853579	0.05
2	11632	567.735589853579	0.05
2	11634	567.835589853579	0.05
2	11634	567.912721981	0.05
2	11634	567.913066771137	0.05
3	0	0	0.004
3	944	46.974101355068	0
3	1242	61.210004201835	0.004
3	1481	73.029842819603	0
3	1827	90.226712106672	0.004
3	1952	95.83957490879	0
3	2188	107.371561481223	0.004
3	2573	126.125863666945	0
3	2912	142.556091369785	0.004
3	3843	188.655958722837	0
3	4320	212.44405344238	0.004
3	4640	227.613899646651	0
3	5559	273.488613342393	0.004
3	5625	276.149759840296	0
3	5957	292.083926095288	0.004
3	6234	303.929282584603	0
3	6361	310.15540820825	0.004
3	8063	394.06793673445	0
3	8260	403.639976207433	0.004
3	8343	407.539985000475	0
3	8947	437.477047332113	0.004
3	8957	437.79343737649	0
3	8984	439.096769100851	0.004
3	9479	463.150452503276	0
3	10590	517.808756051381	0.004
3	10703	521.966001209485	0
3	10885	530.96121769498	0.004
4	0	0	0.004
4	461	23.08057828677	0
4	504	25.195065580817	0.004
4	791	39.399327674375	0
4	1098	54.59394677729	0.004
4	1580	77.898615291431	0
4	1943	95.544915169186	0.004
4	2145	105.310515201471	0
4	2548	125.2308693509	0.004
4	3506	171.85299937296	0
4	5819	285.822289428169	0.004
4	5854	287.005513312707	0
4	5969	292.498498568044	0.004
4	6089	296.680400038364	0
4	6658	324.853795055786	0.004
4	7032	343.136853381198	0
4	7398	361.198210570118	0.004
4	7531	367.69915363655	0
4	7992	390.60107980346	0.004
4	8172	399.470050682497	0
4	8222	401.909290154293	0.004
4	8229	402.159627181729	0
4	8350	407.806348578797	0.004
4	8948	437.530396954483	0
4	9033	441.067296262359	0.004
4	9068	442.663188684116	0
4	9881	483.204219549257	0.004
4	10806	527.072657288118	0
4	11330	552.937316172092	0.004
4	11463	559.329671440718	0
5	0	0	0.004
5	944	46.974101355068	0
5	1242	61.210004201835	0.004
5	1481	73.029842819603	0
5	1827	90.226712106672	0.004
5	1952	95.83957490879	0
5	2188	107.371561481223	0.004
5	2573	126.125863666945	0
5	2912	142.556091369785	0.004
5	3843	188.655958722837	0
5	4320	212.44405344238	0.004
5	4640	227.613899646651	0
5	5559	273.488613342393	0.004
5	5625	276.149759840296	0
5	5957	292.083926095288	0.004
5	6234	303.929282584603	0
5	6361	310.15540820825	0.004
5	8063	394.06793673445	0
5	8260	403.639976207433	0.004
5	8343	407.539985000475	0
5	8947	437.477047332113	0.004
5	8957	437.79343737649	0
5	8984	439.096769100851	0.004
5	9479	463.150452503276	0
5	10590	517.808756051381	0.004
5	10703	521.966001209485	0
5	10885	530.96121769498	0.004

