version 2
run Mysterio_ex2-0-20210828-17:43:43-3951
attr configname Mysterio_ex2
attr datetime 20210828-17:43:43
attr experiment Mysterio_ex2
attr inifile omnetpp.ini
attr iterationvars ""
attr iterationvarsf ""
attr measurement ""
attr network MysterioCommunication2
attr processid 3951
attr repetition 0
attr replication #0
attr resultdir results
attr runnumber 0
attr seedset 0
param *.host[*].mobility.numeroDrones 2
param *.numHosts 2
param *.host[*].osgModel "\"3d/drone.ive.100.scale.0,0,90.rot\""
param *.basestation.osgModel "\"3d/car.ive.50.scale.0,0,90.rot\""
param *.canvasVisualizer.energyStorageVisualizer.displayEnergyStorages true
param *.host[*].hasStatus true
param *.host[*].energyStorage.typename "\"SimpleEpEnergyStorage\""
param *.host[*].wlan[*].radio.energyConsumer.typename "\"StateBasedEpEnergyConsumer\""
param *.host[*].energyManagement.typename "\"SimpleEpEnergyManagement\""
param *.host[*].energyStorage.nominalCapacity 0.05J
param *.host[*].energyManagement.nodeShutdownCapacity "0.1 * energyStorage.nominalCapacity"
param *.host[*].energyManagement.nodeStartCapacity "0.5 * energyStorage.nominalCapacity"
param *.host[*].energyStorage.initialCapacity 0.05J
param *.host[*].energyGenerator.typename "\"AlternatingEpEnergyGenerator\""
param *.host[*].energyGenerator.powerGeneration 4mW
param *.host[*].energyGenerator.sleepInterval exponential(25s)
param *.host[*].energyGenerator.generationInterval exponential(25s)
param *.host[*].mobility.typename "\"UAVMobility\""
param *.host[*].mobility.changeInterval 1s
param *.host[*].mobility.initialMovementHeading "uniform(0deg, 360deg)"
param *.host[*].mobility.initialMovementElevation "uniform(-90deg, 90deg)"
param *.host[*].mobility.angleDelta uniform(-10deg,10deg)
param *.host[*].mobility.rotationAxisAngle uniform(-10deg,10deg)
param *.host[*].mobility.speed uniform(10mps,20mps)
param *.host[*].mobility.faceForward false
param *.host[*].mobility.initialX 220m
param *.host[*].mobility.initialY 220m
param *.host[*].mobility.initialZ 80m
param *.visualizer.osgVisualizer.typename "\"IntegratedOsgVisualizer\""
param *.visualizer.osgVisualizer.sceneVisualizer.clearColor "\"skyblue\""
param *.visualizer.osgVisualizer.sceneVisualizer.sceneImage "\"showcases/desert\""
param *.visualizer.osgVisualizer.sceneVisualizer.sceneImageSize 5000m
param *.visualizer.osgVisualizer.sceneVisualizer.axisLength 1000m
param *.visualizer.osgVisualizer.sceneVisualizer.sceneMinX -2000m
param *.visualizer.osgVisualizer.sceneVisualizer.sceneMinY -2000m
param *.visualizer.osgVisualizer.sceneVisualizer.sceneMinZ 0m
param *.visualizer.osgVisualizer.sceneVisualizer.sceneMaxX 3000m
param *.visualizer.osgVisualizer.sceneVisualizer.sceneMaxY 3000m
param *.visualizer.osgVisualizer.sceneVisualizer.sceneMaxZ 1000m
param *.visualizer.osgVisualizer.networkNodeVisualizer.displayModuleName false
param *.visualizer.*.mobilityVisualizer.displayMobility true
param *.visualizer.*.mobilityVisualizer.displayPositions true
param *.visualizer.*.mobilityVisualizer.displayOrientations false
param *.visualizer.*.mobilityVisualizer.displayVelocities true
param *.visualizer.*.mobilityVisualizer.displayMovementTrails true
param *.visualizer.*.mobilityVisualizer.animationSpeed 3
param **.constraintAreaMinX 0m
param **.constraintAreaMinY 0m
param **.constraintAreaMinZ 0m
param **.constraintAreaMaxX 1000m
param **.constraintAreaMaxY 1000m
param **.constraintAreaMaxZ 1000m
param **.networkConfiguratorModule "\"\""

vector 0 MysterioCommunication2.host[0].energyStorage residualEnergyCapacity:vector ETV
attr interpolationmode linear
attr source residualEnergyCapacityChanged
attr title "Residual energy capacity, vector"
vector 1 MysterioCommunication2.host[0].energyGenerator powerGeneration:vector ETV
attr interpolationmode sample-hold
attr source powerGenerationChanged
attr title "Power generation, vector"
vector 2 MysterioCommunication2.host[1].energyStorage residualEnergyCapacity:vector ETV
attr interpolationmode linear
attr source residualEnergyCapacityChanged
attr title "Residual energy capacity, vector"
vector 3 MysterioCommunication2.host[1].energyGenerator powerGeneration:vector ETV
attr interpolationmode sample-hold
attr source powerGenerationChanged
attr title "Power generation, vector"
vector 4 MysterioCommunication2.host[0].energyStorage powerGeneration:vector ETV
attr interpolationmode sample-hold
attr source powerGenerationChanged
attr title "Power generation, vector"
vector 5 MysterioCommunication2.host[1].energyStorage powerGeneration:vector ETV
attr interpolationmode sample-hold
attr source powerGenerationChanged
attr title "Power generation, vector"
0	0	0	0.05
0	0	0.1	0.05
0	2	0.168011026	0.05
0	3	0.2	0.05
0	5	0.3	0.05
0	7	0.4	0.05
0	9	0.5	0.05
0	10	0.560371276	0.05
0	11	0.6	0.05
0	13	0.7	0.05
0	15	0.8	0.05
0	17	0.9	0.05
0	19	1	0.05
0	21	1.1	0.05
0	22	1.104505723	0.05
0	23	1.2	0.05
0	25	1.3	0.05
0	26	1.384221589	0.05
0	27	1.4	0.05
0	29	1.5	0.05
0	31	1.6	0.05
0	33	1.7	0.05
0	35	1.8	0.05
0	36	1.868928538	0.05
0	37	1.9	0.05
0	39	2	0.05
0	41	2.1	0.05
0	43	2.2	0.05
0	45	2.3	0.05
0	46	2.368443937	0.05
0	47	2.4	0.05
0	49	2.5	0.05
0	51	2.6	0.05
0	52	2.628042385	0.0495
0	52	2.628042385	0.0495
0	53	2.7	0.04978783046
0	55	2.8	0.05
0	57	2.9	0.05
0	59	3	0.05
0	60	3.028352086	0.05
0	61	3.1	0.05
0	63	3.2	0.05
0	64	3.216149701	0.05
0	65	3.3	0.05
0	67	3.4	0.05
0	69	3.5	0.05
0	71	3.6	0.05
0	72	3.610629448	0.05
0	73	3.7	0.05
0	75	3.8	0.05
0	76	3.89601811	0.05
0	77	3.9	0.05
0	79	4	0.05
0	81	4.1	0.05
0	83	4.2	0.05
0	85	4.3	0.05
0	86	4.314152344	0.05
0	87	4.4	0.05
0	89	4.5	0.05
0	91	4.6	0.05
0	93	4.7	0.05
0	95	4.8	0.05
0	96	4.8097804	0.05
0	97	4.9	0.05
0	99	5	0.05
0	101	5.1	0.05
0	103	5.2	0.05
0	105	5.3	0.05
0	106	5.356494964	0.0495
0	106	5.356494964	0.0495
0	107	5.4	0.049674020144
0	109	5.5	0.05
0	110	5.573666287	0.05
0	111	5.6	0.05
0	113	5.7	0.05
0	114	5.777336317	0.05
0	115	5.8	0.05
0	117	5.9	0.05
0	119	6	0.05
0	120	6.072074776	0.05
0	121	6.1	0.05
0	123	6.2	0.05
0	125	6.3	0.05
0	127	6.4	0.05
0	129	6.5	0.05
0	130	6.571928239	0.05
0	131	6.6	0.05
0	133	6.7	0.05
0	135	6.8	0.05
0	136	6.864241684	0.05
0	137	6.9	0.05
0	139	7	0.05
0	141	7.1	0.05
0	142	7.159807345	0.05
0	143	7.2	0.05
0	145	7.3	0.05
0	146	7.391660953	0.05
0	147	7.4	0.05
0	149	7.5	0.05
0	151	7.6	0.05
0	152	7.638695626	0.05
0	153	7.7	0.05
0	155	7.8	0.05
0	157	7.9	0.05
0	159	8	0.05
0	161	8.1	0.05
0	162	8.197286254	0.05
0	163	8.2	0.05
0	165	8.3	0.05
0	167	8.4	0.05
0	168	8.481706072	0.05
0	169	8.5	0.05
0	171	8.6	0.05
0	173	8.7	0.05
0	175	8.8	0.05
0	177	8.9	0.05
0	178	8.991205246	0.05
0	179	9	0.05
0	181	9.1	0.05
0	183	9.2	0.05
0	185	9.3	0.05
0	187	9.4	0.05
0	188	9.441147898	0.05
0	189	9.5	0.05
0	191	9.6	0.05
0	193	9.7	0.05
0	195	9.8	0.05
0	197	9.9	0.05
0	198	9.923653999	0.05
0	199	10	0.05
0	201	10.1	0.05
0	203	10.2	0.05
0	205	10.3	0.05
0	207	10.4	0.05
0	209	10.5	0.05
0	210	10.506346867	0.05
0	211	10.6	0.05
0	213	10.7	0.05
0	214	10.775512168	0.05
0	215	10.8	0.05
0	217	10.9	0.05
0	219	11	0.05
0	221	11.1	0.05
0	223	11.2	0.05
0	224	11.259050287	0.05
0	225	11.3	0.05
0	227	11.4	0.05
0	229	11.5	0.05
0	231	11.6	0.05
0	233	11.7	0.05
0	234	11.79992443	0.05
0	235	11.8	0.05
0	237	11.9	0.05
0	239	12	0.05
0	241	12.1	0.05
0	243	12.2	0.05
0	245	12.3	0.05
0	247	12.4	0.05
0	248	12.477944542	0.05
0	249	12.5	0.05
0	251	12.6	0.05
0	253	12.7	0.05
0	255	12.8	0.05
0	257	12.9	0.05
0	259	13	0.05
0	261	13.1	0.05
0	262	13.160344225	0.05
0	263	13.2	0.05
0	265	13.3	0.05
0	267	13.4	0.05
0	269	13.5	0.05
0	271	13.6	0.05
0	273	13.7	0.05
0	274	13.760865721	0.05
0	275	13.8	0.05
0	277	13.9	0.05
0	279	14	0.05
0	281	14.1	0.05
0	283	14.2	0.05
0	285	14.3	0.05
0	286	14.355237601	0.05
0	287	14.4	0.05
0	289	14.5	0.05
0	291	14.6	0.05
0	293	14.7	0.05
0	295	14.8	0.05
0	297	14.9	0.05
0	298	14.956575463	0.05
0	299	15	0.05
0	301	15.1	0.05
0	303	15.2	0.05
0	305	15.3	0.05
0	306	15.365050066	0.05
0	307	15.4	0.05
0	309	15.5	0.05
0	311	15.6	0.05
0	312	15.643180462	0.05
0	313	15.7	0.05
0	315	15.8	0.05
0	317	15.9	0.05
0	319	16	0.05
0	321	16.1	0.05
0	322	16.127833393	0.05
0	323	16.2	0.05
0	325	16.3	0.05
0	327	16.4	0.05
0	329	16.5	0.05
0	330	16.538141818	0.05
0	331	16.6	0.05
0	333	16.7	0.05
0	335	16.8	0.05
0	336	16.80972661	0.05
0	337	16.9	0.05
0	339	17	0.05
0	341	17.1	0.05
0	343	17.2	0.05
0	344	17.265541639	0.05
0	345	17.3	0.05
0	347	17.4	0.05
0	349	17.5	0.05
0	351	17.6	0.05
0	353	17.7	0.05
0	354	17.705467183	0.0495
0	354	17.705467183	0.0495
0	355	17.8	0.049878131268
0	357	17.9	0.05
0	358	17.976334987	0.05
0	359	18	0.05
0	361	18.1	0.05
0	363	18.2	0.05
0	365	18.3	0.05
0	366	18.391384564	0.05
0	367	18.4	0.05
0	369	18.5	0.05
0	371	18.6	0.05
0	372	18.674101792	0.05
0	373	18.7	0.05
0	375	18.8	0.05
0	377	18.9	0.05
0	379	19	0.05
0	381	19.1	0.05
0	382	19.18075957	0.05
0	383	19.2	0.05
0	385	19.3	0.05
0	387	19.4	0.05
0	389	19.5	0.05
0	390	19.591499182	0.05
0	391	19.6	0.05
0	393	19.7	0.05
0	395	19.8	0.05
0	397	19.9	0.05
0	399	20	0.05
0	401	20.1	0.05
0	402	20.106847615	0.05
0	403	20.2	0.05
0	405	20.3	0.05
0	407	20.4	0.05
0	409	20.5	0.05
0	410	20.579582764	0.05
0	411	20.6	0.05
0	413	20.7	0.05
0	415	20.8	0.05
0	417	20.9	0.05
0	419	21	0.05
0	420	21.041843398	0.05
0	421	21.1	0.05
0	423	21.2	0.05
0	425	21.3	0.05
0	426	21.324804007	0.05
0	427	21.4	0.05
0	429	21.5	0.05
0	431	21.6	0.05
0	433	21.7	0.05
0	435	21.8	0.05
0	436	21.809911921	0.0495
0	436	21.809911921	0.0495
0	437	21.9	0.049860352316
0	439	22	0.05
0	441	22.1	0.05
0	443	22.2	0.05
0	444	22.224964702	0.05
0	445	22.3	0.05
0	447	22.4	0.05
0	449	22.5	0.05
0	451	22.6	0.05
0	452	22.696108804	0.05
0	453	22.7	0.05
0	455	22.8	0.05
0	457	22.9	0.05
0	458	22.90489285	0.05
0	459	23	0.05
0	461	23.08057828677	0.05
0	462	23.1	0.05
0	463	23.146806394	0.05
0	464	23.2	0.05
0	466	23.3	0.05
0	468	23.4	0.05
0	470	23.5	0.05
0	472	23.6	0.05
0	473	23.620138189	0.05
0	474	23.7	0.05
0	476	23.8	0.05
0	478	23.9	0.05
0	480	24	0.05
0	482	24.1	0.05
0	483	24.133237561	0.05
0	484	24.2	0.05
0	486	24.3	0.05
0	487	24.375507016	0.05
0	488	24.4	0.05
0	490	24.5	0.0495
0	490	24.5	0.0495
0	492	24.6	0.0495
0	494	24.7	0.0495
0	496	24.8	0.0495
0	497	24.84399727	0.0495
0	498	24.9	0.0495
0	500	25	0.0495
0	502	25.1	0.0495
0	504	25.2	0.0495
0	506	25.3	0.0495
0	507	25.368672532	0.0495
0	508	25.4	0.0495
0	510	25.5	0.0495
0	512	25.6	0.0495
0	513	25.654878865	0.0495
0	514	25.7	0.0495
0	516	25.8	0.0495
0	518	25.9	0.049005
0	518	25.9	0.049005
0	520	26	0.049005
0	521	26.096143621	0.049005
0	522	26.1	0.049005
0	524	26.2	0.049005
0	526	26.3	0.049005
0	528	26.4	0.049005
0	530	26.5	0.049005
0	531	26.587645252	0.049005
0	532	26.6	0.049005
0	534	26.7	0.049005
0	536	26.8	0.049005
0	537	26.862067858	0.049005
0	538	26.9	0.049005
0	540	27	0.049005
0	542	27.1	0.049005
0	544	27.2	0.049005
0	546	27.3	0.04851495
0	546	27.3	0.04851495
0	547	27.334007917	0.04851495
0	548	27.4	0.04851495
0	550	27.5	0.04851495
0	552	27.6	0.04851495
0	554	27.7	0.04851495
0	556	27.8	0.04851495
0	557	27.878332597	0.04851495
0	558	27.9	0.04851495
0	560	28	0.04851495
0	562	28.1	0.04851495
0	563	28.169750551	0.04851495
0	564	28.2	0.04851495
0	566	28.3	0.04851495
0	568	28.4	0.04851495
0	570	28.5	0.04851495
0	572	28.6	0.04851495
0	574	28.7	0.0480298005
0	574	28.7	0.0480298005
0	575	28.727633962	0.0480298005
0	576	28.8	0.0480298005
0	578	28.9	0.0480298005
0	580	29	0.0480298005
0	581	29.015474443	0.0480298005
0	582	29.1	0.0480298005
0	584	29.2	0.0480298005
0	586	29.3	0.0480298005
0	588	29.4	0.0480298005
0	590	29.5	0.0480298005
0	591	29.501257411	0.0480298005
0	592	29.6	0.0480298005
0	594	29.7	0.0480298005
0	596	29.8	0.0480298005
0	598	29.9	0.0480298005
0	600	30	0.0480298005
0	602	30.1	0.047549502495
0	602	30.1	0.047549502495
0	603	30.180047506	0.047549502495
0	604	30.2	0.047549502495
0	606	30.3	0.047549502495
0	608	30.4	0.047549502495
0	610	30.5	0.047549502495
0	612	30.6	0.047549502495
0	614	30.7	0.047549502495
0	615	30.784036033	0.047549502495
0	616	30.8	0.047549502495
0	618	30.9	0.047549502495
0	620	31	0.047549502495
0	621	31.070460337	0.047549502495
0	622	31.1	0.047549502495
0	624	31.2	0.047549502495
0	626	31.3	0.047549502495
0	628	31.4	0.047549502495
0	630	31.5	0.04707400747005
0	630	31.5	0.04707400747005
0	631	31.57237192	0.04707400747005
0	632	31.6	0.04707400747005
0	634	31.7	0.04707400747005
0	636	31.8	0.04707400747005
0	638	31.9	0.04707400747005
0	640	32	0.04707400747005
0	642	32.1	0.04707400747005
0	643	32.11314364	0.04707400747005
0	644	32.2	0.04707400747005
0	646	32.3	0.04707400747005
0	648	32.4	0.04707400747005
0	650	32.5	0.04707400747005
0	652	32.6	0.04707400747005
0	653	32.663198863	0.04707400747005
0	654	32.7	0.04707400747005
0	656	32.8	0.04707400747005
0	658	32.9	0.04660326739535
0	658	32.9	0.04660326739535
0	660	33	0.04660326739535
0	662	33.1	0.04660326739535
0	664	33.2	0.04660326739535
0	666	33.3	0.04660326739535
0	667	33.306479167	0.04660326739535
0	668	33.4	0.04660326739535
0	670	33.5	0.04660326739535
0	672	33.6	0.04660326739535
0	674	33.7	0.04660326739535
0	676	33.8	0.04660326739535
0	678	33.9	0.04660326739535
0	679	33.955211941	0.04660326739535
0	680	34	0.04660326739535
0	682	34.1	0.04660326739535
0	684	34.2	0.04660326739535
0	686	34.3	0.04660326739535
0	688	34.4	0.046137234721396
0	688	34.4	0.046137234721396
0	690	34.5	0.046137234721396
0	691	34.592343307	0.046137234721396
0	692	34.6	0.046137234721396
0	694	34.7	0.046137234721396
0	696	34.8	0.046137234721396
0	698	34.9	0.046137234721396
0	700	35	0.046137234721396
0	701	35.092792288	0.046137234721396
0	702	35.1	0.046137234721396
0	704	35.2	0.046137234721396
0	706	35.3	0.046137234721396
0	708	35.4	0.046137234721396
0	710	35.5	0.046137234721396
0	712	35.6	0.046137234721396
0	714	35.7	0.046137234721396
0	715	35.751544831	0.046137234721396
0	716	35.8	0.045675862374182
0	716	35.8	0.045675862374182
0	718	35.9	0.045675862374182
0	720	36	0.045675862374182
0	722	36.1	0.045675862374182
0	724	36.2	0.045675862374182
0	726	36.3	0.045675862374182
0	727	36.309060412	0.045675862374182
0	728	36.4	0.045675862374182
0	730	36.5	0.045675862374182
0	732	36.6	0.045675862374182
0	734	36.7	0.045675862374182
0	736	36.8	0.045675862374182
0	738	36.9	0.045675862374182
0	740	37	0.045675862374182
0	741	37.002069781	0.045675862374182
0	742	37.1	0.045675862374182
0	744	37.2	0.045675862374182
0	746	37.3	0.04521910375044
0	746	37.3	0.04521910375044
0	748	37.4	0.04521910375044
0	749	37.453720519	0.04521910375044
0	750	37.5	0.04521910375044
0	752	37.6	0.04521910375044
0	754	37.7	0.04521910375044
0	756	37.8	0.04521910375044
0	758	37.9	0.04521910375044
0	759	37.986880447	0.04521910375044
0	760	38	0.04521910375044
0	762	38.1	0.04521910375044
0	764	38.2	0.04521910375044
0	765	38.279081782	0.04521910375044
0	766	38.3	0.04521910375044
0	768	38.4	0.04521910375044
0	770	38.5	0.04521910375044
0	772	38.6	0.04521910375044
0	774	38.7	0.044766912712936
0	774	38.7	0.044766912712936
0	775	38.77427509	0.044766912712936
0	776	38.8	0.044766912712936
0	778	38.9	0.044766912712936
0	780	39	0.044766912712936
0	782	39.1	0.044766912712936
0	784	39.2	0.044766912712936
0	785	39.220190971	0.044766912712936
0	786	39.3	0.044766912712936
0	788	39.4	0.044766912712936
0	790	39.5	0.044766912712936
0	792	39.6	0.044766912712936
0	793	39.677119309	0.044766912712936
0	794	39.7	0.044766912712936
0	796	39.8	0.044766912712936
0	798	39.9	0.044766912712936
0	800	40	0.044766912712936
0	801	40.098111874	0.044766912712936
0	802	40.1	0.044766912712936
0	804	40.2	0.044766912712936
0	806	40.3	0.044766912712936
0	808	40.4	0.044766912712936
0	810	40.5	0.044766912712936
0	811	40.584485839	0.044766912712936
0	812	40.6	0.044766912712936
0	814	40.7	0.044766912712936
0	816	40.8	0.044766912712936
0	818	40.9	0.044766912712936
0	820	41	0.044766912712936
0	821	41.002574173	0.044766912712936
0	822	41.1	0.044766912712936
0	824	41.2	0.044766912712936
0	826	41.3	0.044766912712936
0	828	41.4	0.044766912712936
0	829	41.417874067	0.044766912712936
0	830	41.5	0.044766912712936
0	832	41.6	0.044766912712936
0	834	41.7	0.044766912712936
0	836	41.8	0.044766912712936
0	838	41.9	0.044766912712936
0	839	41.963621623	0.044766912712936
0	840	42	0.044766912712936
0	842	42.1	0.044766912712936
0	844	42.2	0.044766912712936
0	846	42.3	0.044766912712936
0	847	42.377125051	0.044766912712936
0	848	42.4	0.044766912712936
0	850	42.5	0.044766912712936
0	852	42.6	0.044766912712936
0	854	42.7	0.044766912712936
0	856	42.8	0.044766912712936
0	857	42.896557066	0.044766912712936
0	858	42.9	0.044766912712936
0	860	43	0.044766912712936
0	862	43.1	0.044766912712936
0	864	43.2	0.044766912712936
0	866	43.3	0.044766912712936
0	867	43.384524871	0.044766912712936
0	868	43.4	0.044766912712936
0	870	43.5	0.044766912712936
0	872	43.6	0.044766912712936
0	874	43.7	0.044766912712936
0	876	43.8	0.044766912712936
0	877	43.843771342	0.044766912712936
0	878	43.9	0.044766912712936
0	880	44	0.044766912712936
0	881	44.099552452	0.044766912712936
0	882	44.1	0.044766912712936
0	884	44.2	0.044319243585806
0	884	44.2	0.044319243585806
0	886	44.3	0.044319243585806
0	888	44.4	0.044319243585806
0	889	44.484043036	0.044319243585806
0	890	44.5	0.044319243585806
0	892	44.6	0.044319243585806
0	894	44.7	0.044319243585806
0	895	44.767961653	0.044319243585806
0	896	44.8	0.044319243585806
0	898	44.9	0.044319243585806
0	900	45	0.044319243585806
0	902	45.1	0.044319243585806
0	904	45.2	0.044319243585806
0	905	45.237360673	0.044319243585806
0	906	45.3	0.044319243585806
0	908	45.4	0.044319243585806
0	910	45.5	0.044319243585806
0	911	45.514887544	0.044319243585806
0	912	45.6	0.044319243585806
0	914	45.7	0.044319243585806
0	916	45.8	0.044319243585806
0	918	45.9	0.044319243585806
0	920	46	0.044319243585806
0	921	46.004421514	0.044319243585806
0	922	46.1	0.044319243585806
0	924	46.2	0.044319243585806
0	926	46.3	0.044319243585806
0	928	46.4	0.044319243585806
0	929	46.434036448	0.044319243585806
0	930	46.5	0.044319243585806
0	932	46.6	0.044319243585806
0	934	46.7	0.044319243585806
0	936	46.8	0.044319243585806
0	938	46.9	0.044319243585806
0	939	46.945084249	0.044319243585806
0	941	47	0.044319243585806
0	943	47.1	0.044319243585806
0	945	47.2	0.044319243585806
0	946	47.244536833	0.044319243585806
0	947	47.3	0.044319243585806
0	949	47.4	0.044319243585806
0	951	47.5	0.044319243585806
0	953	47.6	0.044319243585806
0	955	47.7	0.044319243585806
0	956	47.706476332	0.044319243585806
0	957	47.8	0.044319243585806
0	959	47.9	0.044319243585806
0	960	47.964389545	0.044319243585806
0	961	48	0.044319243585806
0	963	48.1	0.044319243585806
0	965	48.2	0.044319243585806
0	967	48.3	0.044319243585806
0	969	48.4	0.044319243585806
0	970	48.470300038	0.044319243585806
0	971	48.5	0.044319243585806
0	973	48.6	0.044319243585806
0	975	48.7	0.044319243585806
0	977	48.8	0.044319243585806
0	979	48.9	0.044319243585806
0	980	48.992418385	0.044319243585806
0	981	49	0.044319243585806
0	983	49.1	0.044319243585806
0	985	49.2	0.044319243585806
0	987	49.3	0.044319243585806
0	989	49.4	0.044319243585806
0	991	49.5	0.044319243585806
0	992	49.550218228	0.044319243585806
0	993	49.6	0.044319243585806
0	995	49.7	0.044319243585806
0	997	49.8	0.044319243585806
0	999	49.9	0.044319243585806
0	1001	50	0.044319243585806
0	1002	50.048070901	0.044319243585806
0	1003	50.1	0.044319243585806
0	1005	50.2	0.044319243585806
0	1007	50.3	0.044319243585806
0	1009	50.4	0.044319243585806
0	1011	50.5	0.044319243585806
0	1013	50.6	0.044319243585806
0	1014	50.64717142	0.044319243585806
0	1016	50.7	0.044319243585806
0	1018	50.8	0.044319243585806
0	1020	50.9	0.044319243585806
0	1022	51	0.044319243585806
0	1024	51.1	0.043876051149948
0	1024	51.1	0.043876051149948
0	1026	51.2	0.043876051149948
0	1026	51.249359179	0.043876051149948
0	1028	51.3	0.043876051149948
0	1030	51.4	0.043876051149948
0	1032	51.5	0.043876051149948
0	1034	51.6	0.043876051149948
0	1036	51.7	0.043876051149948
0	1036	51.752084143	0.043876051149948
0	1038	51.8	0.043876051149948
0	1040	51.9	0.043876051149948
0	1042	52	0.043876051149948
0	1044	52.1	0.043876051149948
0	1046	52.2	0.043876051149948
0	1048	52.3	0.043876051149948
0	1050	52.4	0.043876051149948
0	1050	52.454002531	0.043876051149948
0	1052	52.5	0.043437290638449
0	1052	52.5	0.043437290638449
0	1054	52.6	0.043437290638449
0	1056	52.7	0.043437290638449
0	1058	52.8	0.043437290638449
0	1059	52.885499626	0.043437290638449
0	1060	52.9	0.043437290638449
0	1062	53	0.043437290638449
0	1064	53.1	0.043437290638449
0	1066	53.2	0.043437290638449
0	1068	53.3	0.043437290638449
0	1068	53.379784042	0.043437290638449
0	1070	53.4	0.043437290638449
0	1072	53.5	0.043437290638449
0	1074	53.6	0.043437290638449
0	1074	53.680094692	0.043437290638449
0	1076	53.7	0.043437290638449
0	1078	53.8	0.043437290638449
0	1080	53.9	0.043002917732064
0	1080	53.9	0.043002917732064
0	1082	54	0.043002917732064
0	1084	54.1	0.043002917732064
0	1086	54.2	0.043002917732064
0	1086	54.225604585	0.043002917732064
0	1088	54.3	0.043002917732064
0	1090	54.4	0.043002917732064
0	1092	54.5	0.043002917732064
0	1094	54.6	0.043002917732064
0	1096	54.7	0.043002917732064
0	1098	54.8	0.043002917732064
0	1100	54.9	0.043002917732064
0	1100	54.969182038	0.043002917732064
0	1102	55	0.043002917732064
0	1104	55.1	0.043002917732064
0	1106	55.2	0.043002917732064
0	1108	55.3	0.043002917732064
0	1110	55.4	0.042572888554744
0	1110	55.4	0.042572888554744
0	1112	55.5	0.042572888554744
0	1114	55.6	0.042572888554744
0	1114	55.632755632	0.042572888554744
0	1117	55.7	0.042572888554744
0	1120	55.8	0.042572888554744
0	1123	55.9	0.042572888554744
0	1123	55.920118312	0.042572888554744
0	1126	56	0.042572888554744
0	1128	56.1	0.042572888554744
0	1130	56.2	0.042572888554744
0	1132	56.3	0.042572888554744
0	1134	56.4	0.042572888554744
0	1134	56.407678237	0.042572888554744
0	1136	56.5	0.042572888554744
0	1138	56.6	0.042147159669196
0	1138	56.6	0.042147159669196
0	1140	56.7	0.042147159669196
0	1141	56.769634267061	0.042147159669196
0	1143	56.869634267061	0.042147159669196
0	1143	56.871059383	0.042147159669196
0	1145	56.969634267061	0.042147159669196
0	1147	57.069634267061	0.042147159669196
0	1149	57.169634267061	0.042147159669196
0	1151	57.269634267061	0.042147159669196
0	1152	57.347500627	0.042147159669196
0	1154	57.369634267061	0.042147159669196
0	1156	57.469634267061	0.042147159669196
0	1158	57.569634267061	0.042147159669196
0	1160	57.669634267061	0.042147159669196
0	1162	57.769634267061	0.042147159669196
0	1164	57.869634267061	0.042147159669196
0	1164	57.884085511	0.042147159669196
0	1166	57.969634267061	0.041725688072504
0	1166	57.969634267061	0.041725688072504
0	1168	58.069634267061	0.041725688072504
0	1170	58.169634267061	0.041725688072504
0	1172	58.269634267061	0.041725688072504
0	1173	58.340309254	0.041725688072504
0	1174	58.369634267061	0.041725688072504
0	1176	58.469634267061	0.041725688072504
0	1178	58.569634267061	0.041725688072504
0	1179	58.606546306	0.041725688072504
0	1180	58.669634267061	0.041725688072504
0	1182	58.769634267061	0.041725688072504
0	1184	58.869634267061	0.041725688072504
0	1185	58.897935058	0.041725688072504
0	1186	58.969634267061	0.041725688072504
0	1188	59.069634267061	0.041725688072504
0	1190	59.169634267061	0.041725688072504
0	1192	59.269634267061	0.041725688072504
0	1194	59.369634267061	0.041308431191779
0	1194	59.369634267061	0.041308431191779
0	1196	59.469634267061	0.041308431191779
0	1197	59.524664167	0.041308431191779
0	1198	59.569634267061	0.041308431191779
0	1200	59.669634267061	0.041308431191779
0	1202	59.769634267061	0.041308431191779
0	1204	59.869634267061	0.041308431191779
0	1206	59.885682236611	0.041308431191779
0	1207	59.933574438666	0.0415
0	1208	59.969634267061	0.04164423931358
0	1209	60.048128377	0.041958215753336
0	1210	60.058574438666	0.042
0	1211	60.069634267061	0.04204423931358
0	1213	60.169634267061	0.04244423931358
0	1214	60.183574438666	0.0425
0	1216	60.269634267061	0.04284423931358
0	1218	60.308574438666	0.043
0	1219	60.369634267061	0.04324423931358
0	1221	60.433574438666	0.0435
0	1222	60.469634267061	0.04364423931358
0	1224	60.558574438666	0.04356
0	1224	60.558574438666	0.04356
0	1225	60.569634267061	0.04360423931358
0	1226	60.598339894	0.043719061821336
0	1227	60.668574438666	0.044
0	1228	60.669634267061	0.04400423931358
0	1230	60.769634267061	0.04440423931358
0	1232	60.793574438666	0.0445
0	1233	60.869634267061	0.04480423931358
0	1235	60.918574438666	0.045
0	1236	60.969634267061	0.04520423931358
0	1237	61.02335641	0.045419127885336
0	1238	61.043574438666	0.0455
0	1239	61.069634267061	0.04560423931358
0	1241	61.168574438666	0.046
0	1242	61.169634267061	0.04600423931358
0	1244	61.269634267061	0.04640423931358
0	1246	61.293574438666	0.0465
0	1247	61.369634267061	0.04680423931358
0	1249	61.418574438666	0.047
0	1250	61.469634267061	0.04720423931358
0	1251	61.508298907	0.047358897873336
0	1252	61.543574438666	0.047025
0	1252	61.543574438666	0.047025
0	1253	61.569634267061	0.04712923931358
0	1255	61.662324438666	0.0475
0	1256	61.669634267061	0.04752923931358
0	1258	61.769634267061	0.04792923931358
0	1260	61.787324438666	0.048
0	1261	61.869634267061	0.04832923931358
0	1263	61.912324438666	0.0485
0	1264	61.969634267061	0.04872923931358
0	1265	62.023717708	0.048945573077336
0	1266	62.037324438666	0.049
0	1267	62.069634267061	0.04912923931358
0	1269	62.162324438666	0.0495
0	1270	62.169634267061	0.04952923931358
0	1272	62.269634267061	0.04992923931358
0	1274	62.287324438666	0.05
0	1275	62.369634267061	0.05
0	1277	62.469634267061	0.05
0	1278	62.546507809	0.05
0	1279	62.569634267061	0.05
0	1281	62.669634267061	0.05
0	1283	62.769634267061	0.05
0	1285	62.869634267061	0.05
0	1287	62.969634267061	0.05
0	1289	63.069634267061	0.05
0	1290	63.093254017	0.05
0	1291	63.169634267061	0.05
0	1293	63.269634267061	0.05
0	1295	63.369634267061	0.05
0	1297	63.469634267061	0.05
0	1299	63.569634267061	0.05
0	1300	63.588888139	0.05
0	1301	63.669634267061	0.05
0	1303	63.769634267061	0.05
0	1305	63.869634267061	0.05
0	1307	63.969634267061	0.05
0	1308	64.021990204	0.05
0	1309	64.069634267061	0.05
0	1311	64.169634267061	0.05
0	1313	64.269634267061	0.05
0	1315	64.369634267061	0.05
0	1316	64.413086407	0.05
0	1317	64.469634267061	0.05
0	1319	64.569634267061	0.05
0	1321	64.669634267061	0.05
0	1323	64.769634267061	0.05
0	1324	64.858103176	0.05
0	1325	64.869634267061	0.05
0	1327	64.969634267061	0.05
0	1329	65.069634267061	0.05
0	1331	65.169634267061	0.05
0	1333	65.269634267061	0.05
0	1335	65.369634267061	0.05
0	1335	65.370627547	0.05
0	1337	65.469634267061	0.05
0	1339	65.569634267061	0.05
0	1341	65.669634267061	0.05
0	1343	65.769634267061	0.05
0	1344	65.844346447	0.05
0	1345	65.869634267061	0.05
0	1347	65.969634267061	0.05
0	1349	66.069634267061	0.05
0	1351	66.169634267061	0.05
0	1353	66.269634267061	0.05
0	1354	66.319926811	0.05
0	1355	66.369634267061	0.05
0	1357	66.469634267061	0.05
0	1359	66.569634267061	0.05
0	1361	66.669634267061	0.05
0	1362	66.749391709	0.05
0	1363	66.769634267061	0.05
0	1365	66.869634267061	0.05
0	1367	66.969634267061	0.05
0	1368	67.047868141	0.05
0	1369	67.069634267061	0.05
0	1371	67.169634267061	0.05
0	1373	67.269634267061	0.05
0	1375	67.369634267061	0.05
0	1376	67.448308561	0.05
0	1377	67.469634267061	0.05
0	1379	67.569634267061	0.05
0	1381	67.669634267061	0.05
0	1383	67.769634267061	0.05
0	1385	67.869634267061	0.05
0	1386	67.944920821	0.05
0	1387	67.969634267061	0.05
0	1389	68.069634267061	0.05
0	1391	68.169634267061	0.05
0	1392	68.231029093	0.0495
0	1392	68.231029093	0.0495
0	1393	68.269634267061	0.049654420696244
0	1395	68.369634267061	0.05
0	1397	68.469634267061	0.05
0	1399	68.569634267061	0.05
0	1401	68.669634267061	0.05
0	1402	68.70077587	0.05
0	1403	68.769634267061	0.05
0	1405	68.869634267061	0.05
0	1407	68.969634267061	0.05
0	1409	69.069634267061	0.05
0	1410	69.14456326	0.05
0	1411	69.169634267061	0.05
0	1413	69.269634267061	0.05
0	1415	69.369634267061	0.05
0	1416	69.429517522	0.05
0	1417	69.469634267061	0.05
0	1419	69.569634267061	0.05
0	1421	69.669634267061	0.05
0	1423	69.769634267061	0.05
0	1425	69.869634267061	0.05
0	1426	69.889185229	0.05
0	1427	69.969634267061	0.05
0	1429	70.069634267061	0.05
0	1431	70.169634267061	0.05
0	1433	70.269634267061	0.05
0	1434	70.29736303	0.05
0	1435	70.369634267061	0.05
0	1437	70.469634267061	0.05
0	1439	70.569634267061	0.05
0	1441	70.669634267061	0.05
0	1442	70.754978038	0.05
0	1443	70.769634267061	0.05
0	1445	70.869634267061	0.05
0	1447	70.969634267061	0.05
0	1448	71.019879046	0.05
0	1449	71.069634267061	0.05
0	1451	71.169634267061	0.05
0	1453	71.269634267061	0.05
0	1454	71.288181376	0.05
0	1455	71.369634267061	0.05
0	1457	71.469634267061	0.05
0	1459	71.569634267061	0.05
0	1461	71.669634267061	0.05
0	1461	71.680684954	0.05
0	1463	71.769634267061	0.05
0	1465	71.869634267061	0.05
0	1466	71.887006621	0.05
0	1467	71.969634267061	0.05
0	1469	72.069634267061	0.05
0	1471	72.169634267061	0.05
0	1473	72.269634267061	0.05
0	1475	72.369634267061	0.05
0	1475	72.378603169	0.05
0	1477	72.469634267061	0.05
0	1479	72.569634267061	0.05
0	1482	72.669634267061	0.05
0	1485	72.769634267061	0.05
0	1487	72.820520428	0.05
0	1488	72.869634267061	0.05
0	1491	72.969634267061	0.05
0	1494	73.069634267061	0.05
0	1496	73.169634267061	0.05
0	1499	73.269634267061	0.05
0	1501	73.301655607	0.05
0	1502	73.369634267061	0.0495
0	1502	73.369634267061	0.0495
0	1505	73.469634267061	0.0499
0	1507	73.569634267061	0.05
0	1509	73.669634267061	0.05
0	1511	73.769634267061	0.05
0	1513	73.869634267061	0.05
0	1513	73.871803198	0.05
0	1515	73.969634267061	0.05
0	1517	74.069634267061	0.05
0	1519	74.169634267061	0.05
0	1521	74.269634267061	0.05
0	1522	74.332569583	0.05
0	1523	74.369634267061	0.05
0	1525	74.469634267061	0.05
0	1527	74.569634267061	0.05
0	1529	74.669634267061	0.05
0	1530	74.71432474	0.0495
0	1530	74.71432474	0.0495
0	1531	74.769634267061	0.049721238108244
0	1533	74.869634267061	0.05
0	1534	74.966497792	0.05
0	1535	74.969634267061	0.05
0	1537	75.069634267061	0.05
0	1539	75.169634267061	0.05
0	1541	75.221133889721	0.05
0	1542	75.269634267061	0.05
0	1543	75.347866771	0.05
0	1544	75.369634267061	0.05
0	1546	75.469634267061	0.05
0	1548	75.569634267061	0.05
0	1550	75.669634267061	0.05
0	1552	75.769634267061	0.05
0	1552	75.779259196	0.05
0	1554	75.869634267061	0.05
0	1556	75.969634267061	0.05
0	1558	76.069634267061	0.0495
0	1558	76.069634267061	0.0495
0	1560	76.169634267061	0.0495
0	1560	76.181561059	0.0495
0	1562	76.269634267061	0.0495
0	1564	76.369634267061	0.0495
0	1566	76.469634267061	0.0495
0	1568	76.569634267061	0.0495
0	1569	76.650842281	0.0495
0	1570	76.669634267061	0.0495
0	1572	76.769634267061	0.0495
0	1574	76.869634267061	0.0495
0	1576	76.969634267061	0.0495
0	1578	77.069634267061	0.0495
0	1580	77.169634267061	0.0495
0	1581	77.237547127	0.0495
0	1582	77.269634267061	0.0495
0	1584	77.369634267061	0.0495
0	1586	77.469634267061	0.049005
0	1586	77.469634267061	0.049005
0	1588	77.569634267061	0.049005
0	1590	77.669634267061	0.049005
0	1591	77.723747446	0.049005
0	1592	77.769634267061	0.049005
0	1594	77.869634267061	0.049005
0	1596	77.969634267061	0.049005
0	1598	78.069634267061	0.049005
0	1599	78.164614834	0.049005
0	1600	78.169634267061	0.049005
0	1602	78.269634267061	0.049005
0	1604	78.369634267061	0.049005
0	1605	78.462723829	0.049005
0	1606	78.469634267061	0.049005
0	1608	78.569634267061	0.049005
0	1610	78.669634267061	0.049005
0	1612	78.769634267061	0.049005
0	1614	78.869634267061	0.04851495
0	1614	78.869634267061	0.04851495
0	1615	78.914567617	0.04851495
0	1616	78.969634267061	0.04851495
0	1618	79.069634267061	0.04851495
0	1620	79.169634267061	0.04851495
0	1622	79.269634267061	0.04851495
0	1624	79.369634267061	0.04851495
0	1625	79.417830001	0.04851495
0	1626	79.469634267061	0.04851495
0	1628	79.569634267061	0.04851495
0	1630	79.669634267061	0.04851495
0	1632	79.769634267061	0.04851495
0	1633	79.865028886	0.04851495
0	1634	79.869634267061	0.04851495
0	1636	79.969634267061	0.04851495
0	1638	80.069634267061	0.04851495
0	1640	80.169634267061	0.04851495
0	1642	80.269634267061	0.0480298005
0	1642	80.269634267061	0.0480298005
0	1643	80.34872251	0.0480298005
0	1644	80.369634267061	0.0480298005
0	1646	80.469634267061	0.0480298005
0	1648	80.569634267061	0.0480298005
0	1650	80.669634267061	0.0480298005
0	1652	80.769634267061	0.0480298005
0	1653	80.795421622	0.0480298005
0	1654	80.869634267061	0.0480298005
0	1656	80.969634267061	0.0480298005
0	1658	81.069634267061	0.0480298005
0	1660	81.169634267061	0.0480298005
0	1662	81.269634267061	0.0480298005
0	1663	81.328020481	0.0480298005
0	1664	81.369634267061	0.0480298005
0	1666	81.469634267061	0.0480298005
0	1668	81.569634267061	0.0480298005
0	1670	81.669634267061	0.047549502495
0	1670	81.669634267061	0.047549502495
0	1672	81.769634267061	0.047549502495
0	1674	81.869634267061	0.047549502495
0	1676	81.969634267061	0.047549502495
0	1677	82.068530407	0.047549502495
0	1678	82.069634267061	0.047549502495
0	1680	82.169634267061	0.047549502495
0	1682	82.269634267061	0.047549502495
0	1684	82.369634267061	0.047549502495
0	1686	82.469634267061	0.047549502495
0	1687	82.53319447	0.047549502495
0	1688	82.569634267061	0.047549502495
0	1690	82.669634267061	0.047549502495
0	1692	82.769634267061	0.047549502495
0	1693	82.824520135	0.047549502495
0	1694	82.869634267061	0.047549502495
0	1696	82.969634267061	0.047549502495
0	1698	83.069634267061	0.04707400747005
0	1698	83.069634267061	0.04707400747005
0	1699	83.112274744	0.04707400747005
0	1700	83.169634267061	0.04707400747005
0	1702	83.269634267061	0.04707400747005
0	1704	83.369634267061	0.04707400747005
0	1706	83.469634267061	0.04707400747005
0	1708	83.569634267061	0.04707400747005
0	1709	83.624926258	0.04707400747005
0	1710	83.669634267061	0.04707400747005
0	1712	83.769634267061	0.04707400747005
0	1714	83.869634267061	0.04707400747005
0	1716	83.969634267061	0.04707400747005
0	1718	84.069634267061	0.04707400747005
0	1719	84.127236094	0.04707400747005
0	1720	84.169634267061	0.04707400747005
0	1722	84.269634267061	0.04707400747005
0	1724	84.369634267061	0.04707400747005
0	1726	84.469634267061	0.04660326739535
0	1726	84.469634267061	0.04660326739535
0	1728	84.569634267061	0.04660326739535
0	1730	84.669634267061	0.04660326739535
0	1732	84.769634267061	0.04660326739535
0	1733	84.84608989	0.04660326739535
0	1734	84.869634267061	0.04660326739535
0	1736	84.969634267061	0.04660326739535
0	1738	85.069634267061	0.04660326739535
0	1740	85.169634267061	0.04660326739535
0	1742	85.269634267061	0.04660326739535
0	1744	85.369634267061	0.04660326739535
0	1746	85.469634267061	0.04660326739535
0	1748	85.569634267061	0.04660326739535
0	1749	85.619031661	0.04660326739535
0	1750	85.669634267061	0.04660326739535
0	1752	85.769634267061	0.04660326739535
0	1754	85.869634267061	0.04660326739535
0	1756	85.969634267061	0.046137234721396
0	1756	85.969634267061	0.046137234721396
0	1758	86.069634267061	0.046137234721396
0	1760	86.169634267061	0.046137234721396
0	1761	86.227821676	0.046137234721396
0	1762	86.269634267061	0.046137234721396
0	1764	86.369634267061	0.046137234721396
0	1766	86.469634267061	0.046137234721396
0	1768	86.569634267061	0.046137234721396
0	1770	86.669634267061	0.046137234721396
0	1771	86.739247165	0.046137234721396
0	1772	86.769634267061	0.046137234721396
0	1774	86.869634267061	0.046137234721396
0	1776	86.969634267061	0.046137234721396
0	1778	87.069634267061	0.046137234721396
0	1779	87.142961854	0.046137234721396
0	1780	87.169634267061	0.046137234721396
0	1782	87.269634267061	0.046137234721396
0	1784	87.369634267061	0.045675862374182
0	1784	87.369634267061	0.045675862374182
0	1786	87.469634267061	0.045675862374182
0	1788	87.569634267061	0.045675862374182
0	1789	87.651584311	0.045675862374182
0	1790	87.669634267061	0.045675862374182
0	1792	87.769634267061	0.045675862374182
0	1794	87.869634267061	0.045675862374182
0	1796	87.969634267061	0.045675862374182
0	1798	88.069634267061	0.045675862374182
0	1800	88.169634267061	0.045675862374182
0	1801	88.188316	0.045675862374182
0	1802	88.269634267061	0.045675862374182
0	1804	88.369634267061	0.045675862374182
0	1806	88.469634267061	0.045675862374182
0	1807	88.487782564	0.045675862374182
0	1808	88.569634267061	0.045675862374182
0	1810	88.669634267061	0.045675862374182
0	1812	88.769634267061	0.04521910375044
0	1812	88.769634267061	0.04521910375044
0	1814	88.869634267061	0.04521910375044
0	1815	88.944998245	0.04521910375044
0	1816	88.969634267061	0.04521910375044
0	1818	89.069634267061	0.04521910375044
0	1820	89.169634267061	0.04521910375044
0	1822	89.269634267061	0.04521910375044
0	1824	89.369634267061	0.04521910375044
0	1825	89.444623093	0.04521910375044
0	1826	89.469634267061	0.04521910375044
0	1828	89.569634267061	0.04521910375044
0	1830	89.669634267061	0.04521910375044
0	1832	89.769634267061	0.04521910375044
0	1834	89.869634267061	0.04521910375044
0	1836	89.969634267061	0.04521910375044
0	1836	89.973195952	0.04521910375044
0	1838	90.069634267061	0.04521910375044
0	1840	90.169634267061	0.044766912712936
0	1840	90.169634267061	0.044766912712936
0	1842	90.269634267061	0.044766912712936
0	1844	90.369634267061	0.044766912712936
0	1846	90.469634267061	0.044766912712936
0	1847	90.545835247	0.044766912712936
0	1848	90.569634267061	0.044766912712936
0	1850	90.669634267061	0.044766912712936
0	1852	90.769634267061	0.044766912712936
0	1854	90.869634267061	0.044766912712936
0	1856	90.969634267061	0.044766912712936
0	1858	91.069634267061	0.044766912712936
0	1860	91.169634267061	0.044766912712936
0	1861	91.222139245	0.044766912712936
0	1862	91.269634267061	0.044766912712936
0	1864	91.369634267061	0.044766912712936
0	1866	91.469634267061	0.044766912712936
0	1868	91.569634267061	0.044766912712936
0	1870	91.669634267061	0.044319243585806
0	1870	91.669634267061	0.044319243585806
0	1872	91.769634267061	0.044319243585806
0	1874	91.869634267061	0.044319243585806
0	1876	91.969634267061	0.044319243585806
0	1877	92.002926799	0.044319243585806
0	1878	92.069634267061	0.044319243585806
0	1880	92.169634267061	0.044319243585806
0	1882	92.269634267061	0.044319243585806
0	1884	92.369634267061	0.044319243585806
0	1885	92.457097537	0.044319243585806
0	1886	92.469634267061	0.044319243585806
0	1888	92.569634267061	0.044319243585806
0	1890	92.669634267061	0.044319243585806
0	1892	92.769634267061	0.044319243585806
0	1893	92.838788551	0.044319243585806
0	1894	92.869634267061	0.044319243585806
0	1896	92.969634267061	0.044319243585806
0	1898	93.069634267061	0.043876051149948
0	1898	93.069634267061	0.043876051149948
0	1900	93.169634267061	0.043876051149948
0	1901	93.267548677	0.043876051149948
0	1902	93.269634267061	0.043876051149948
0	1904	93.369634267061	0.043876051149948
0	1906	93.469634267061	0.043876051149948
0	1908	93.569634267061	0.043876051149948
0	1910	93.669634267061	0.043876051149948
0	1911	93.759883747	0.043876051149948
0	1912	93.769634267061	0.043876051149948
0	1914	93.869634267061	0.043876051149948
0	1916	93.969634267061	0.043876051149948
0	1918	94.069634267061	0.043876051149948
0	1920	94.169634267061	0.043876051149948
0	1921	94.244419861	0.043876051149948
0	1922	94.269634267061	0.043876051149948
0	1924	94.369634267061	0.043876051149948
0	1926	94.469634267061	0.043437290638449
0	1926	94.469634267061	0.043437290638449
0	1928	94.569634267061	0.043437290638449
0	1930	94.669634267061	0.043437290638449
0	1931	94.746175714	0.043437290638449
0	1932	94.769634267061	0.043437290638449
0	1934	94.869634267061	0.043437290638449
0	1936	94.969634267061	0.043437290638449
0	1938	95.069634267061	0.043437290638449
0	1940	95.169634267061	0.043437290638449
0	1942	95.269634267061	0.043437290638449
0	1943	95.324116342	0.043437290638449
0	1944	95.369634267061	0.043437290638449
0	1946	95.469634267061	0.043437290638449
0	1948	95.569634267061	0.043437290638449
0	1950	95.669634267061	0.043437290638449
0	1952	95.769634267061	0.043437290638449
0	1954	95.869634267061	0.043437290638449
0	1954	95.874244156	0.043002917732064
0	1954	95.874244156	0.043002917732064
0	1956	95.969634267061	0.043002917732064
0	1958	96.069634267061	0.043002917732064
0	1960	96.169634267061	0.043002917732064
0	1962	96.269634267061	0.043002917732064
0	1964	96.369634267061	0.043002917732064
0	1965	96.451473811	0.043002917732064
0	1966	96.469634267061	0.043002917732064
0	1968	96.569634267061	0.043002917732064
0	1970	96.669634267061	0.043002917732064
0	1972	96.769634267061	0.043002917732064
0	1974	96.869634267061	0.043002917732064
0	1976	96.969634267061	0.043002917732064
0	1977	97.02346903	0.043002917732064
0	1978	97.069634267061	0.043002917732064
0	1980	97.169634267061	0.043002917732064
0	1982	97.269634267061	0.043002917732064
0	1984	97.369634267061	0.042572888554744
0	1984	97.369634267061	0.042572888554744
0	1986	97.469634267061	0.042572888554744
0	1987	97.507518814	0.042572888554744
0	1988	97.569634267061	0.042572888554744
0	1990	97.669634267061	0.042572888554744
0	1992	97.769634267061	0.042572888554744
0	1994	97.869634267061	0.042572888554744
0	1996	97.969634267061	0.042572888554744
0	1997	97.992496288	0.042572888554744
0	1998	98.069634267061	0.042572888554744
0	2000	98.169634267061	0.042572888554744
0	2002	98.269634267061	0.042572888554744
0	2004	98.369634267061	0.042572888554744
0	2005	98.438552956	0.042572888554744
0	2006	98.469634267061	0.042572888554744
0	2008	98.569634267061	0.042572888554744
0	2010	98.669634267061	0.042572888554744
0	2012	98.769634267061	0.042147159669196
0	2012	98.769634267061	0.042147159669196
0	2014	98.869634267061	0.042147159669196
0	2015	98.920561702	0.042147159669196
0	2016	98.969634267061	0.042147159669196
0	2018	99.069634267061	0.042147159669196
0	2020	99.169634267061	0.042147159669196
0	2022	99.269634267061	0.042147159669196
0	2024	99.369634267061	0.042147159669196
0	2026	99.469634267061	0.042147159669196
0	2026	99.472740532	0.042147159669196
0	2028	99.569634267061	0.042147159669196
0	2030	99.669634267061	0.042147159669196
0	2031	99.742395142	0.042147159669196
0	2032	99.769634267061	0.042147159669196
0	2034	99.869634267061	0.042147159669196
0	2036	99.969634267061	0.042147159669196
0	2038	100.069634267061	0.042147159669196
0	2040	100.169634267061	0.041725688072504
0	2040	100.169634267061	0.041725688072504
0	2040	100.180024177	0.041725688072504
0	2042	100.269634267061	0.041725688072504
0	2044	100.369634267061	0.041725688072504
0	2046	100.469634267061	0.041725688072504
0	2048	100.569634267061	0.041725688072504
0	2049	100.613953492	0.041725688072504
0	2050	100.669634267061	0.041725688072504
0	2052	100.769634267061	0.041725688072504
0	2054	100.869634267061	0.041725688072504
0	2056	100.969634267061	0.041725688072504
0	2057	101.032266424	0.041725688072504
0	2058	101.069634267061	0.041725688072504
0	2060	101.169634267061	0.041725688072504
0	2062	101.269634267061	0.041725688072504
0	2064	101.369634267061	0.041725688072504
0	2065	101.457179833	0.041725688072504
0	2066	101.469634267061	0.041308431191779
0	2066	101.469634267061	0.041308431191779
0	2068	101.569634267061	0.041308431191779
0	2070	101.669634267061	0.041308431191779
0	2072	101.769634267061	0.041308431191779
0	2074	101.869634267061	0.041308431191779
0	2075	101.949002893	0.041308431191779
0	2076	101.969634267061	0.041308431191779
0	2078	102.069634267061	0.041308431191779
0	2080	102.169634267061	0.041308431191779
0	2082	102.269634267061	0.041308431191779
0	2084	102.369634267061	0.041308431191779
0	2084	102.374088019	0.041308431191779
0	2086	102.469634267061	0.041308431191779
0	2088	102.569634267061	0.041308431191779
0	2090	102.669634267061	0.041308431191779
0	2091	102.765183502	0.041308431191779
0	2092	102.769634267061	0.041308431191779
0	2094	102.869634267061	0.040895346879862
0	2094	102.869634267061	0.040895346879862
0	2096	102.969634267061	0.040895346879862
0	2098	103.069634267061	0.040895346879862
0	2100	103.169634267061	0.040895346879862
0	2101	103.228237309	0.040895346879862
0	2102	103.269634267061	0.040895346879862
0	2104	103.369634267061	0.040895346879862
0	2106	103.469634267061	0.040895346879862
0	2107	103.508703286	0.040895346879862
0	2108	103.569634267061	0.040895346879862
0	2110	103.625305918866	0.040895346879862
0	2112	103.725305918866	0.040895346879862
0	2114	103.825305918866	0.040895346879862
0	2116	103.925305918866	0.040895346879862
0	2118	104.025305918866	0.040895346879862
0	2118	104.03268877	0.040895346879862
0	2120	104.125305918866	0.040895346879862
0	2122	104.225305918866	0.040486393411063
0	2122	104.225305918866	0.040486393411063
0	2124	104.325305918866	0.040486393411063
0	2126	104.425305918866	0.040486393411063
0	2128	104.525305918866	0.040486393411063
0	2128	104.546886484	0.040486393411063
0	2130	104.625305918866	0.040486393411063
0	2132	104.725305918866	0.040486393411063
0	2134	104.825305918866	0.040486393411063
0	2136	104.925305918866	0.040486393411063
0	2138	105.025305918866	0.040486393411063
0	2138	105.029728552	0.040486393411063
0	2140	105.125305918866	0.040486393411063
0	2142	105.225305918866	0.040486393411063
0	2144	105.325305918866	0.040486393411063
0	2146	105.425305918866	0.040486393411063
0	2148	105.525305918866	0.040486393411063
0	2148	105.532305556	0.040486393411063
0	2150	105.625305918866	0.040081529476952
0	2150	105.625305918866	0.040081529476952
0	2152	105.725305918866	0.040081529476952
0	2153	105.802677493	0.040081529476952
0	2154	105.825305918866	0.040081529476952
0	2156	105.925305918866	0.040081529476952
0	2158	106.025305918866	0.040081529476952
0	2160	106.125305918866	0.040081529476952
0	2162	106.225305918866	0.040081529476952
0	2164	106.325305918866	0.040081529476952
0	2164	106.326458614	0.040081529476952
0	2166	106.425305918866	0.040081529476952
0	2168	106.525305918866	0.040081529476952
0	2170	106.625305918866	0.040081529476952
0	2172	106.725305918866	0.040081529476952
0	2173	106.797428782	0.040081529476952
0	2174	106.825305918866	0.040081529476952
0	2176	106.925305918866	0.040081529476952
0	2178	107.025305918866	0.039680714182183
0	2178	107.025305918866	0.039680714182183
0	2180	107.125305918866	0.039680714182183
0	2182	107.225305918866	0.039680714182183
0	2183	107.315419408	0.039680714182183
0	2184	107.325305918866	0.039680714182183
0	2186	107.425305918866	0.039680714182183
0	2188	107.525305918866	0.039680714182183
0	2190	107.625305918866	0.039680714182183
0	2192	107.725305918866	0.039680714182183
0	2192	107.736376993	0.039680714182183
0	2194	107.825305918866	0.039680714182183
0	2196	107.925305918866	0.039680714182183
0	2199	108.025305918866	0.039680714182183
0	2201	108.125305918866	0.039680714182183
0	2202	108.184052896	0.039680714182183
0	2203	108.225305918866	0.039680714182183
0	2205	108.325305918866	0.039680714182183
0	2208	108.425305918866	0.039680714182183
0	2211	108.525305918866	0.039680714182183
0	2213	108.625305918866	0.039680714182183
0	2214	108.688315237	0.039680714182183
0	2215	108.725305918866	0.039680714182183
0	2217	108.825305918866	0.039680714182183
0	2219	108.925305918866	0.039680714182183
0	2221	109.025305918866	0.039680714182183
0	2223	109.125305918866	0.039680714182183
0	2224	109.198455901	0.039680714182183
0	2225	109.225305918866	0.039680714182183
0	2227	109.325305918866	0.039680714182183
0	2229	109.425305918866	0.039680714182183
0	2231	109.525305918866	0.039680714182183
0	2232	109.525957456157	0.039680714182183
0	2233	109.601518786	0.039680714182183
0	2234	109.625957456157	0.039283907040361
0	2234	109.625957456157	0.039283907040361
0	2236	109.725957456157	0.039283907040361
0	2238	109.825957456157	0.039283907040361
0	2240	109.925957456157	0.039283907040361
0	2243	110.025957456157	0.039283907040361
0	2244	110.1212881	0.039283907040361
0	2245	110.125957456157	0.039283907040361
0	2247	110.225957456157	0.039283907040361
0	2249	110.325957456157	0.039283907040361
0	2251	110.425957456157	0.039283907040361
0	2253	110.525957456157	0.039283907040361
0	2255	110.625957456157	0.039283907040361
0	2255	110.662019386	0.039283907040361
0	2257	110.725957456157	0.039283907040361
0	2259	110.825957456157	0.039283907040361
0	2261	110.925957456157	0.039283907040361
0	2263	111.025957456157	0.039283907040361
0	2263	111.050412685	0.039283907040361
0	2265	111.125957456157	0.039283907040361
0	2267	111.225957456157	0.039283907040361
0	2269	111.325957456157	0.039283907040361
0	2271	111.425957456157	0.039283907040361
0	2271	111.472823761	0.039283907040361
0	2273	111.525957456157	0.039283907040361
0	2275	111.625957456157	0.039283907040361
0	2277	111.725957456157	0.039283907040361
0	2279	111.825957456157	0.039283907040361
0	2281	111.925957456157	0.039283907040361
0	2282	111.989466652	0.039283907040361
0	2283	112.025957456157	0.039283907040361
0	2285	112.125957456157	0.039283907040361
0	2287	112.225957456157	0.039283907040361
0	2289	112.325957456157	0.039283907040361
0	2291	112.425957456157	0.039283907040361
0	2292	112.479852499	0.039283907040361
0	2293	112.525957456157	0.039283907040361
0	2295	112.625957456157	0.039283907040361
0	2297	112.725957456157	0.039283907040361
0	2299	112.825957456157	0.039283907040361
0	2301	112.925957456157	0.039283907040361
0	2301	112.932289855	0.039283907040361
0	2303	113.025957456157	0.039283907040361
0	2305	113.125957456157	0.039283907040361
0	2307	113.225957456157	0.039283907040361
0	2309	113.325957456157	0.039283907040361
0	2311	113.425957456157	0.039283907040361
0	2313	113.525957456157	0.039283907040361
0	2314	113.624986774	0.039283907040361
0	2315	113.625957456157	0.039283907040361
0	2317	113.725957456157	0.039283907040361
0	2319	113.825957456157	0.039283907040361
0	2321	113.925957456157	0.039283907040361
0	2323	114.025957456157	0.039283907040361
0	2325	114.125957456157	0.039283907040361
0	2327	114.225957456157	0.039283907040361
0	2328	114.313049785	0.039283907040361
0	2329	114.325957456157	0.039283907040361
0	2331	114.425957456157	0.039283907040361
0	2333	114.525957456157	0.039283907040361
0	2335	114.625957456157	0.039283907040361
0	2337	114.725957456157	0.039283907040361
0	2338	114.825212293	0.039283907040361
0	2339	114.825957456157	0.039283907040361
0	2341	114.925957456157	0.039283907040361
0	2343	115.025957456157	0.039283907040361
0	2345	115.125957456157	0.039283907040361
0	2347	115.225957456157	0.039283907040361
0	2348	115.311261859	0.038891067969957
0	2348	115.311261859	0.038891067969957
0	2349	115.325957456157	0.038891067969957
0	2351	115.425957456157	0.038891067969957
0	2353	115.525957456157	0.038891067969957
0	2354	115.550160719046	0.038891067969957
0	2356	115.650160719046	0.038891067969957
0	2358	115.750160719046	0.038891067969957
0	2359	115.812667501	0.038891067969957
0	2360	115.850160719046	0.038891067969957
0	2362	115.950160719046	0.038891067969957
0	2364	116.050160719046	0.038891067969957
0	2366	116.150160719046	0.038891067969957
0	2368	116.250160719046	0.038891067969957
0	2370	116.350160719046	0.038891067969957
0	2371	116.426152633	0.038891067969957
0	2372	116.450160719046	0.038891067969957
0	2374	116.550160719046	0.038891067969957
0	2376	116.650160719046	0.038891067969957
0	2378	116.750160719046	0.038502157290258
0	2378	116.750160719046	0.038502157290258
0	2380	116.850160719046	0.038502157290258
0	2381	116.944552255	0.038502157290258
0	2382	116.950160719046	0.038502157290258
0	2384	117.050160719046	0.038502157290258
0	2386	117.150160719046	0.038502157290258
0	2388	117.250160719046	0.038502157290258
0	2390	117.350160719046	0.038502157290258
0	2391	117.408949102	0.038502157290258
0	2392	117.450160719046	0.038502157290258
0	2394	117.550160719046	0.038502157290258
0	2396	117.650160719046	0.038502157290258
0	2398	117.750160719046	0.038502157290258
0	2400	117.850160719046	0.038502157290258
0	2401	117.919696048	0.038502157290258
0	2402	117.950160719046	0.038502157290258
0	2404	118.050160719046	0.038502157290258
0	2406	118.150160719046	0.038117135717355
0	2406	118.150160719046	0.038117135717355
0	2408	118.250160719046	0.038117135717355
0	2410	118.350160719046	0.038117135717355
0	2411	118.428585529	0.038117135717355
0	2412	118.450160719046	0.038117135717355
0	2414	118.550160719046	0.038117135717355
0	2416	118.650160719046	0.038117135717355
0	2416	118.672199632	0.038117135717355
0	2418	118.750160719046	0.038117135717355
0	2420	118.850160719046	0.038117135717355
0	2422	118.950160719046	0.038117135717355
0	2424	119.050160719046	0.038117135717355
0	2425	119.077233421	0.038117135717355
0	2426	119.150160719046	0.038117135717355
0	2429	119.250160719046	0.038117135717355
0	2431	119.350160719046	0.038117135717355
0	2433	119.450160719046	0.038117135717355
0	2434	119.518202398	0.038117135717355
0	2435	119.550160719046	0.038117135717355
0	2437	119.650160719046	0.038117135717355
0	2439	119.750160719046	0.038117135717355
0	2441	119.850160719046	0.038117135717355
0	2443	119.950160719046	0.038117135717355
0	2444	120.002723641	0.038117135717355
0	2445	120.050160719046	0.038117135717355
0	2447	120.150160719046	0.038117135717355
0	2449	120.250160719046	0.038117135717355
0	2451	120.350160719046	0.038117135717355
0	2453	120.450160719046	0.038117135717355
0	2454	120.521385931	0.038117135717355
0	2455	120.550160719046	0.038117135717355
0	2457	120.650160719046	0.038117135717355
0	2459	120.750160719046	0.038117135717355
0	2461	120.850160719046	0.038117135717355
0	2463	120.950160719046	0.038117135717355
0	2463	120.96423181	0.038117135717355
0	2465	121.050160719046	0.038117135717355
0	2467	121.150160719046	0.038117135717355
0	2469	121.250160719046	0.038117135717355
0	2471	121.350160719046	0.038117135717355
0	2473	121.450160719046	0.038117135717355
0	2475	121.550160719046	0.038117135717355
0	2477	121.650160719046	0.038117135717355
0	2477	121.683467197	0.038117135717355
0	2479	121.750160719046	0.038117135717355
0	2481	121.850160719046	0.038117135717355
0	2483	121.950160719046	0.038117135717355
0	2485	122.050160719046	0.038117135717355
0	2487	122.150160719046	0.038117135717355
0	2487	122.167523077	0.038117135717355
0	2489	122.250160719046	0.038117135717355
0	2491	122.350160719046	0.038117135717355
0	2493	122.450160719046	0.038117135717355
0	2495	122.550160719046	0.038117135717355
0	2497	122.650160719046	0.038117135717355
0	2497	122.664632146	0.038117135717355
0	2499	122.750160719046	0.038117135717355
0	2501	122.850160719046	0.038117135717355
0	2503	122.950160719046	0.038117135717355
0	2505	123.050160719046	0.038117135717355
0	2507	123.150160719046	0.038117135717355
0	2507	123.174541069	0.038117135717355
0	2509	123.250160719046	0.038117135717355
0	2511	123.332955226915	0.038117135717355
0	2513	123.432955226915	0.038117135717355
0	2515	123.532955226915	0.038117135717355
0	2517	123.632955226915	0.038117135717355
0	2517	123.688782019	0.038117135717355
0	2519	123.732955226915	0.038117135717355
0	2521	123.832955226915	0.038117135717355
0	2523	123.932955226915	0.038117135717355
0	2525	124.032955226915	0.038117135717355
0	2527	124.132955226915	0.038117135717355
0	2529	124.232955226915	0.038117135717355
0	2529	124.293014446	0.038117135717355
0	2531	124.332955226915	0.038117135717355
0	2533	124.432955226915	0.038117135717355
0	2535	124.532955226915	0.038117135717355
0	2537	124.632955226915	0.038117135717355
0	2539	124.732955226915	0.038117135717355
0	2541	124.832955226915	0.038117135717355
0	2541	124.876555267	0.038117135717355
0	2543	124.932955226915	0.038117135717355
0	2545	125.032955226915	0.038117135717355
0	2547	125.132955226915	0.038117135717355
0	2549	125.232955226915	0.038117135717355
0	2551	125.332955226915	0.038117135717355
0	2551	125.353477384	0.038117135717355
0	2553	125.432955226915	0.038117135717355
0	2555	125.532955226915	0.038117135717355
0	2557	125.632955226915	0.038117135717355
0	2559	125.732955226915	0.038117135717355
0	2561	125.832955226915	0.038117135717355
0	2561	125.884499908	0.038117135717355
0	2563	125.932955226915	0.038117135717355
0	2565	126.032955226915	0.038117135717355
0	2567	126.132955226915	0.038117135717355
0	2569	126.232955226915	0.038117135717355
0	2571	126.332955226915	0.038117135717355
0	2573	126.432955226915	0.038117135717355
0	2573	126.443771056	0.038117135717355
0	2575	126.532955226915	0.038117135717355
0	2577	126.632955226915	0.038117135717355
0	2579	126.732955226915	0.038117135717355
0	2581	126.832955226915	0.038117135717355
0	2582	126.872697286	0.038117135717355
0	2583	126.932955226915	0.038117135717355
0	2585	127.032955226915	0.038117135717355
0	2587	127.132955226915	0.038117135717355
0	2589	127.232955226915	0.038117135717355
0	2591	127.332955226915	0.038117135717355
0	2591	127.335236158	0.038117135717355
0	2593	127.432955226915	0.038117135717355
0	2595	127.532955226915	0.038117135717355
0	2597	127.632955226915	0.038117135717355
0	2599	127.732955226915	0.038117135717355
0	2600	127.789681375	0.038117135717355
0	2601	127.832955226915	0.038117135717355
0	2603	127.932955226915	0.038117135717355
0	2605	128.032955226915	0.038117135717355
0	2606	128.08646743	0.038117135717355
0	2607	128.132955226915	0.038117135717355
0	2609	128.232955226915	0.038117135717355
0	2611	128.332955226915	0.038117135717355
0	2613	128.432955226915	0.038117135717355
0	2615	128.532955226915	0.038117135717355
0	2615	128.550408313	0.038117135717355
0	2617	128.632955226915	0.038117135717355
0	2619	128.732955226915	0.038117135717355
0	2621	128.832955226915	0.038117135717355
0	2623	128.932955226915	0.038117135717355
0	2625	129.032955226915	0.038117135717355
0	2627	129.132955226915	0.038117135717355
0	2627	129.141892636	0.038117135717355
0	2629	129.232955226915	0.038117135717355
0	2631	129.332955226915	0.038117135717355
0	2633	129.432955226915	0.038117135717355
0	2635	129.532955226915	0.038117135717355
0	2637	129.632955226915	0.038117135717355
0	2638	129.659393365	0.038117135717355
0	2639	129.732955226915	0.038117135717355
0	2641	129.832955226915	0.038117135717355
0	2643	129.932955226915	0.038117135717355
0	2644	129.935250030326	0.038117135717355
0	2646	130.035250030326	0.038117135717355
0	2647	130.114367716	0.038117135717355
0	2648	130.135250030326	0.038117135717355
0	2650	130.235250030326	0.038117135717355
0	2652	130.335250030326	0.038117135717355
0	2654	130.435250030326	0.038117135717355
0	2656	130.535250030326	0.038117135717355
0	2657	130.584554872	0.038117135717355
0	2658	130.635250030326	0.038117135717355
0	2660	130.735250030326	0.037735964360182
0	2660	130.735250030326	0.037735964360182
0	2662	130.835250030326	0.037735964360182
0	2664	130.935250030326	0.037735964360182
0	2666	131.035250030326	0.037735964360182
0	2667	131.068081309	0.037735964360182
0	2668	131.135250030326	0.037735964360182
0	2670	131.235250030326	0.037735964360182
0	2673	131.335250030326	0.037735964360182
0	2675	131.435250030326	0.037735964360182
0	2677	131.535250030326	0.037735964360182
0	2678	131.577637906	0.037735964360182
0	2679	131.635250030326	0.037735964360182
0	2681	131.735250030326	0.037735964360182
0	2683	131.835250030326	0.037735964360182
0	2685	131.935250030326	0.037735964360182
0	2686	132.01493272	0.037735964360182
0	2687	132.035250030326	0.037735964360182
0	2690	132.135250030326	0.037735964360182
0	2692	132.235250030326	0.037735964360182
0	2693	132.309758125	0.037735964360182
0	2694	132.335250030326	0.037735964360182
0	2696	132.435250030326	0.037735964360182
0	2698	132.535250030326	0.037735964360182
0	2699	132.607630033	0.037735964360182
0	2700	132.635250030326	0.037735964360182
0	2702	132.735250030326	0.037735964360182
0	2704	132.835250030326	0.037735964360182
0	2706	132.935250030326	0.037735964360182
0	2708	133.035250030326	0.037735964360182
0	2708	133.069244575	0.037735964360182
0	2710	133.135250030326	0.037735964360182
0	2712	133.235250030326	0.037735964360182
0	2714	133.335250030326	0.037735964360182
0	2716	133.435250030326	0.03735860471658
0	2716	133.435250030326	0.03735860471658
0	2716	133.503069073	0.03735860471658
0	2718	133.535250030326	0.03735860471658
0	2720	133.635250030326	0.03735860471658
0	2722	133.735250030326	0.03735860471658
0	2722	133.764084073	0.03735860471658
0	2724	133.835250030326	0.03735860471658
0	2726	133.935250030326	0.03735860471658
0	2728	134.035250030326	0.03735860471658
0	2730	134.135250030326	0.03735860471658
0	2731	134.228764189	0.03735860471658
0	2732	134.235250030326	0.03735860471658
0	2734	134.335250030326	0.03735860471658
0	2736	134.435250030326	0.03735860471658
0	2738	134.535250030326	0.03735860471658
0	2740	134.628857132024	0.03735860471658
0	2741	134.71256878	0.03735860471658
0	2742	134.728857132024	0.036985018669414
0	2742	134.728857132024	0.036985018669414
0	2744	134.828857132024	0.036985018669414
0	2746	134.928857132024	0.036985018669414
0	2748	135.028857132024	0.036985018669414
0	2750	135.128857132024	0.036985018669414
0	2751	135.216181618	0.036985018669414
0	2752	135.228857132024	0.036985018669414
0	2754	135.328857132024	0.036985018669414
0	2756	135.428857132024	0.036985018669414
0	2758	135.528857132024	0.036985018669414
0	2760	135.628857132024	0.036985018669414
0	2762	135.728857132024	0.036985018669414
0	2763	135.794558527	0.036985018669414
0	2764	135.828857132024	0.036985018669414
0	2766	135.928857132024	0.036985018669414
0	2768	136.028857132024	0.036985018669414
0	2770	136.128857132024	0.036985018669414
0	2772	136.228857132024	0.03661516848272
0	2772	136.228857132024	0.03661516848272
0	2772	136.264244416	0.03661516848272
0	2774	136.328857132024	0.03661516848272
0	2776	136.428857132024	0.03661516848272
0	2779	136.528857132024	0.03661516848272
0	2782	136.628857132024	0.03661516848272
0	2784	136.728857132024	0.03661516848272
0	2785	136.787231086	0.03661516848272
0	2786	136.828857132024	0.03661516848272
0	2788	136.928857132024	0.03661516848272
0	2790	137.028857132024	0.03661516848272
0	2792	137.128857132024	0.03661516848272
0	2794	137.228857132024	0.03661516848272
0	2794	137.265246892	0.03661516848272
0	2796	137.328857132024	0.03661516848272
0	2798	137.428857132024	0.03661516848272
0	2800	137.528857132024	0.036249016797893
0	2800	137.528857132024	0.036249016797893
0	2802	137.628857132024	0.036249016797893
0	2804	137.728857132024	0.036249016797893
0	2804	137.754253051	0.036249016797893
0	2806	137.828857132024	0.036249016797893
0	2808	137.928857132024	0.036249016797893
0	2810	138.028857132024	0.036249016797893
0	2812	138.128857132024	0.036249016797893
0	2814	138.228857132024	0.036249016797893
0	2816	138.328857132024	0.036249016797893
0	2816	138.356554762	0.036249016797893
0	2818	138.428857132024	0.036249016797893
0	2820	138.528857132024	0.036249016797893
0	2822	138.628857132024	0.036249016797893
0	2824	138.728857132024	0.036249016797893
0	2826	138.828857132024	0.036249016797893
0	2827	138.911654794	0.036249016797893
0	2828	138.928857132024	0.035886526629914
0	2828	138.928857132024	0.035886526629914
0	2830	139.028857132024	0.035886526629914
0	2832	139.128857132024	0.035886526629914
0	2834	139.228857132024	0.035886526629914
0	2836	139.328857132024	0.035886526629914
0	2838	139.428857132024	0.035886526629914
0	2839	139.492863361	0.035886526629914
0	2840	139.528857132024	0.035886526629914
0	2842	139.628857132024	0.035886526629914
0	2844	139.728857132024	0.035886526629914
0	2846	139.828857132024	0.035886526629914
0	2848	139.928857132024	0.035886526629914
0	2850	140.028857132024	0.035886526629914
0	2851	140.107934746	0.035886526629914
0	2852	140.128857132024	0.035886526629914
0	2854	140.228857132024	0.035886526629914
0	2856	140.328857132024	0.035886526629914
0	2858	140.428857132024	0.035527661363615
0	2858	140.428857132024	0.035527661363615
0	2860	140.528857132024	0.035527661363615
0	2862	140.628857132024	0.035527661363615
0	2863	140.704585273	0.035527661363615
0	2864	140.728857132024	0.035527661363615
0	2866	140.828857132024	0.035527661363615
0	2868	140.928857132024	0.035527661363615
0	2870	141.028857132024	0.035527661363615
0	2872	141.128857132024	0.035527661363615
0	2874	141.228857132024	0.035527661363615
0	2876	141.328857132024	0.035527661363615
0	2878	141.428857132024	0.035527661363615
0	2879	141.487454908	0.035527661363615
0	2880	141.528857132024	0.035527661363615
0	2882	141.628857132024	0.035527661363615
0	2884	141.728857132024	0.035527661363615
0	2886	141.828857132024	0.035527661363615
0	2888	141.928857132024	0.035172384749978
0	2888	141.928857132024	0.035172384749978
0	2889	142.004215192	0.035172384749978
0	2890	142.028857132024	0.035172384749978
0	2892	142.128857132024	0.035172384749978
0	2894	142.228857132024	0.035172384749978
0	2896	142.328857132024	0.035172384749978
0	2898	142.428857132024	0.035172384749978
0	2900	142.528857132024	0.035172384749978
0	2902	142.628857132024	0.035172384749978
0	2903	142.683641836	0.035172384749978
0	2904	142.728857132024	0.035172384749978
0	2906	142.828857132024	0.035172384749978
0	2908	142.928857132024	0.035172384749978
0	2910	143.028857132024	0.035172384749978
0	2912	143.128857132024	0.035172384749978
0	2913	143.198559322	0.035172384749978
0	2914	143.228857132024	0.035172384749978
0	2916	143.328857132024	0.034820660902479
0	2916	143.328857132024	0.034820660902479
0	2918	143.428857132024	0.034820660902479
0	2920	143.528857132024	0.034820660902479
0	2922	143.628857132024	0.034820660902479
0	2924	143.728857132024	0.034820660902479
0	2924	143.750760538	0.034820660902479
0	2926	143.828857132024	0.034820660902479
0	2928	143.928857132024	0.034820660902479
0	2930	144.028857132024	0.034820660902479
0	2932	144.128857132024	0.034820660902479
0	2934	144.228857132024	0.034820660902479
0	2935	144.295909903	0.034820660902479
0	2936	144.328857132024	0.034820660902479
0	2938	144.428857132024	0.034820660902479
0	2940	144.528857132024	0.034820660902479
0	2942	144.628857132024	0.034820660902479
0	2944	144.728857132024	0.034820660902479
0	2946	144.828857132024	0.034472454293454
0	2946	144.828857132024	0.034472454293454
0	2946	144.831601357	0.034472454293454
0	2948	144.928857132024	0.034472454293454
0	2950	145.028857132024	0.034472454293454
0	2952	145.128857132024	0.034472454293454
0	2954	145.228857132024	0.034472454293454
0	2956	145.328857132024	0.034472454293454
0	2957	145.407395788	0.034472454293454
0	2958	145.428857132024	0.034472454293454
0	2960	145.528857132024	0.034472454293454
0	2962	145.628857132024	0.034472454293454
0	2964	145.728857132024	0.034472454293454
0	2966	145.828857132024	0.034472454293454
0	2968	145.928857132024	0.034472454293454
0	2968	145.937487574	0.034472454293454
0	2971	146.028857132024	0.034472454293454
0	2973	146.128857132024	0.034472454293454
0	2975	146.228857132024	0.034472454293454
0	2977	146.328857132024	0.034472454293454
0	2977	146.371103992	0.034472454293454
0	2979	146.428857132024	0.034472454293454
0	2981	146.528857132024	0.034472454293454
0	2983	146.628857132024	0.034472454293454
0	2985	146.728857132024	0.034472454293454
0	2986	146.822440417	0.034472454293454
0	2987	146.828857132024	0.034472454293454
0	2989	146.928857132024	0.034472454293454
0	2991	147.028857132024	0.034472454293454
0	2993	147.128857132024	0.034472454293454
0	2995	147.228857132024	0.034472454293454
0	2996	147.283272067	0.034472454293454
0	2997	147.328857132024	0.034472454293454
0	2999	147.428857132024	0.034472454293454
0	3001	147.528857132024	0.034472454293454
0	3003	147.628857132024	0.034472454293454
0	3005	147.728857132024	0.034472454293454
0	3005	147.740972881	0.034472454293454
0	3007	147.828857132024	0.034472454293454
0	3009	147.928857132024	0.034472454293454
0	3011	148.028857132024	0.034472454293454
0	3013	148.128857132024	0.034472454293454
0	3015	148.228857132024	0.034472454293454
0	3015	148.251390262	0.034472454293454
0	3017	148.328857132024	0.034472454293454
0	3019	148.428857132024	0.034472454293454
0	3021	148.528857132024	0.034472454293454
0	3023	148.628857132024	0.034472454293454
0	3024	148.719133717	0.034472454293454
0	3025	148.728857132024	0.034472454293454
0	3027	148.828857132024	0.034472454293454
0	3029	148.928857132024	0.034472454293454
0	3031	149.028857132024	0.034472454293454
0	3033	149.128857132024	0.034472454293454
0	3034	149.203087798	0.034472454293454
0	3035	149.228857132024	0.034472454293454
0	3037	149.328857132024	0.034472454293454
0	3039	149.428857132024	0.034472454293454
0	3040	149.484315571	0.034472454293454
0	3041	149.528857132024	0.034472454293454
0	3043	149.628857132024	0.034472454293454
0	3045	149.728857132024	0.034472454293454
0	3047	149.828857132024	0.034472454293454
0	3049	149.928857132024	0.034472454293454
0	3050	150.019733365	0.034472454293454
0	3051	150.028857132024	0.034472454293454
0	3053	150.128857132024	0.034472454293454
0	3055	150.228857132024	0.034472454293454
0	3057	150.328857132024	0.034472454293454
0	3059	150.428857132024	0.034472454293454
0	3060	150.509654404	0.034472454293454
0	3061	150.528857132024	0.034472454293454
0	3063	150.628857132024	0.034472454293454
0	3065	150.728857132024	0.034472454293454
0	3067	150.828857132024	0.034472454293454
0	3069	150.928857132024	0.034472454293454
0	3070	151.00844524	0.034472454293454
0	3071	151.028857132024	0.034472454293454
0	3073	151.128857132024	0.034472454293454
0	3075	151.228857132024	0.034472454293454
0	3077	151.328857132024	0.034472454293454
0	3079	151.428857132024	0.034472454293454
0	3079	151.459510552	0.034472454293454
0	3081	151.528857132024	0.034472454293454
0	3083	151.628857132024	0.034472454293454
0	3085	151.728857132024	0.034472454293454
0	3087	151.828857132024	0.034472454293454
0	3087	151.867350556	0.034472454293454
0	3089	151.928857132024	0.034472454293454
0	3091	152.028857132024	0.034472454293454
0	3093	152.128857132024	0.034472454293454
0	3095	152.228857132024	0.034472454293454
0	3096	152.305684201	0.034472454293454
0	3097	152.328857132024	0.034472454293454
0	3099	152.428857132024	0.034472454293454
0	3101	152.528857132024	0.034472454293454
0	3103	152.628857132024	0.034472454293454
0	3105	152.728857132024	0.034472454293454
0	3106	152.776716091	0.034472454293454
0	3107	152.828857132024	0.034472454293454
0	3109	152.928857132024	0.034472454293454
0	3111	153.028857132024	0.034472454293454
0	3113	153.128857132024	0.034472454293454
0	3115	153.228857132024	0.034472454293454
0	3115	153.229820965	0.034472454293454
0	3117	153.328857132024	0.034472454293454
0	3119	153.428857132024	0.034472454293454
0	3121	153.528857132024	0.034472454293454
0	3123	153.628857132024	0.034472454293454
0	3124	153.711559681	0.034472454293454
0	3125	153.728857132024	0.034472454293454
0	3127	153.828857132024	0.034472454293454
0	3129	153.928857132024	0.034472454293454
0	3131	154.028857132024	0.034472454293454
0	3133	154.128857132024	0.034472454293454
0	3134	154.18960267	0.034472454293454
0	3135	154.228857132024	0.034472454293454
0	3137	154.328857132024	0.034472454293454
0	3139	154.428857132024	0.034472454293454
0	3141	154.528857132024	0.034472454293454
0	3143	154.628857132024	0.034472454293454
0	3143	154.656766498	0.034472454293454
0	3145	154.728857132024	0.034472454293454
0	3147	154.828857132024	0.034472454293454
0	3149	154.928857132024	0.034472454293454
0	3151	155.028857132024	0.034472454293454
0	3152	155.108169994	0.034472454293454
0	3153	155.128857132024	0.034472454293454
0	3155	155.228857132024	0.034472454293454
0	3157	155.328857132024	0.034472454293454
0	3159	155.428857132024	0.034472454293454
0	3161	155.528857132024	0.034472454293454
0	3162	155.599881793	0.034472454293454
0	3163	155.628857132024	0.034472454293454
0	3165	155.728857132024	0.034472454293454
0	3167	155.828857132024	0.034472454293454
0	3168	155.87884075	0.034127729750519
0	3168	155.87884075	0.034127729750519
0	3169	155.928857132024	0.034127729750519
0	3171	156.028857132024	0.034127729750519
0	3173	156.128857132024	0.034127729750519
0	3175	156.228857132024	0.034127729750519
0	3177	156.328857132024	0.034127729750519
0	3178	156.406573504	0.034127729750519
0	3179	156.428857132024	0.034127729750519
0	3181	156.528857132024	0.034127729750519
0	3183	156.628857132024	0.034127729750519
0	3185	156.728857132024	0.034127729750519
0	3187	156.828857132024	0.034127729750519
0	3189	156.928857132024	0.034127729750519
0	3190	156.97822	0.034127729750519
0	3191	157.028857132024	0.034127729750519
0	3193	157.128857132024	0.034127729750519
0	3195	157.228857132024	0.034127729750519
0	3197	157.328857132024	0.034127729750519
0	3199	157.428857132024	0.034127729750519
0	3200	157.491795022	0.034127729750519
0	3201	157.528857132024	0.034127729750519
0	3203	157.628857132024	0.034127729750519
0	3205	157.728857132024	0.034127729750519
0	3207	157.828857132024	0.034127729750519
0	3209	157.928857132024	0.034127729750519
0	3211	158.028857132024	0.034127729750519
0	3211	158.052250555	0.034127729750519
0	3213	158.128857132024	0.034127729750519
0	3215	158.228857132024	0.034127729750519
0	3217	158.328857132024	0.034127729750519
0	3219	158.428857132024	0.034127729750519
0	3221	158.528857132024	0.034127729750519
0	3223	158.628857132024	0.034127729750519
0	3223	158.647438657	0.034127729750519
0	3225	158.728857132024	0.034127729750519
0	3227	158.828857132024	0.034127729750519
0	3229	158.928857132024	0.034127729750519
0	3231	159.028857132024	0.034127729750519
0	3232	159.087806062	0.034127729750519
0	3233	159.128857132024	0.034127729750519
0	3235	159.228857132024	0.034127729750519
0	3237	159.328857132024	0.034127729750519
0	3239	159.428857132024	0.034127729750519
0	3241	159.528857132024	0.034127729750519
0	3241	159.565753543	0.034127729750519
0	3243	159.628857132024	0.034127729750519
0	3245	159.728857132024	0.034127729750519
0	3247	159.828857132024	0.034127729750519
0	3249	159.928857132024	0.034127729750519
0	3251	160.028857132024	0.034127729750519
0	3251	160.062439114	0.034127729750519
0	3253	160.128857132024	0.034127729750519
0	3255	160.228857132024	0.034127729750519
0	3257	160.328857132024	0.034127729750519
0	3259	160.428857132024	0.034127729750519
0	3260	160.490700289	0.034127729750519
0	3261	160.528857132024	0.034127729750519
0	3263	160.628857132024	0.034127729750519
0	3265	160.728857132024	0.034127729750519
0	3267	160.828857132024	0.034127729750519
0	3269	160.928857132024	0.034127729750519
0	3269	160.931079367	0.034127729750519
0	3271	161.028857132024	0.034127729750519
0	3273	161.128857132024	0.034127729750519
0	3275	161.228857132024	0.034127729750519
0	3277	161.328857132024	0.034127729750519
0	3279	161.428857132024	0.034127729750519
0	3281	161.528857132024	0.034127729750519
0	3281	161.550903034	0.034127729750519
0	3283	161.628857132024	0.034127729750519
0	3285	161.728857132024	0.034127729750519
0	3287	161.828857132024	0.034127729750519
0	3289	161.928857132024	0.034127729750519
0	3291	162.028857132024	0.034127729750519
0	3293	162.128857132024	0.034127729750519
0	3293	162.163336249	0.034127729750519
0	3295	162.228857132024	0.034127729750519
0	3297	162.328857132024	0.034127729750519
0	3299	162.428857132024	0.034127729750519
0	3299	162.455610637	0.034127729750519
0	3301	162.528857132024	0.034127729750519
0	3303	162.628857132024	0.034127729750519
0	3304	162.694181698	0.034127729750519
0	3305	162.728857132024	0.034127729750519
0	3307	162.828857132024	0.034127729750519
0	3309	162.928857132024	0.034127729750519
0	3309	162.971054767	0.034127729750519
0	3311	163.028857132024	0.034127729750519
0	3313	163.128857132024	0.034127729750519
0	3315	163.228857132024	0.034127729750519
0	3317	163.328857132024	0.034127729750519
0	3319	163.428857132024	0.034127729750519
0	3319	163.448184832	0.034127729750519
0	3321	163.528857132024	0.034127729750519
0	3323	163.628857132024	0.034127729750519
0	3325	163.728857132024	0.034127729750519
0	3327	163.828857132024	0.034127729750519
0	3329	163.928857132024	0.034127729750519
0	3329	163.971726613	0.034127729750519
0	3331	164.028857132024	0.034127729750519
0	3333	164.128857132024	0.034127729750519
0	3335	164.228857132024	0.034127729750519
0	3335	164.229628168	0.034127729750519
0	3337	164.328857132024	0.034127729750519
0	3339	164.428857132024	0.034127729750519
0	3341	164.528857132024	0.034127729750519
0	3343	164.628857132024	0.034127729750519
0	3345	164.728857132024	0.034127729750519
0	3345	164.735700949	0.034127729750519
0	3347	164.828857132024	0.034127729750519
0	3349	164.928857132024	0.034127729750519
0	3351	165.028857132024	0.034127729750519
0	3353	165.128857132024	0.034127729750519
0	3355	165.228857132024	0.034127729750519
0	3355	165.24425941	0.034127729750519
0	3357	165.328857132024	0.034127729750519
0	3359	165.428857132024	0.034127729750519
0	3361	165.528857132024	0.034127729750519
0	3363	165.628857132024	0.034127729750519
0	3364	165.693560857	0.033786452453014
0	3364	165.693560857	0.033786452453014
0	3365	165.728857132024	0.033786452453014
0	3367	165.828857132024	0.033786452453014
0	3369	165.928857132024	0.033786452453014
0	3371	166.028857132024	0.033786452453014
0	3372	166.094010316	0.033786452453014
0	3373	166.128857132024	0.033786452453014
0	3375	166.228857132024	0.033786452453014
0	3377	166.288876090201	0.033786452453014
0	3378	166.328857132024	0.033946376620306
0	3378	166.340658022	0.03399358018021
0	3379	166.342262976947	0.034
0	3381	166.428857132024	0.034346376620308
0	3382	166.467262976947	0.0345
0	3384	166.528857132024	0.034746376620308
0	3386	166.592262976947	0.035
0	3387	166.628857132024	0.035146376620308
0	3389	166.717262976947	0.0355
0	3390	166.728857132024	0.035546376620308
0	3390	166.762416019	0.035680612168212
0	3392	166.828857132024	0.035586912854105
0	3392	166.828857132024	0.035586912854105
0	3393	166.842262976947	0.036
0	3395	166.928857132024	0.036346376620308
0	3396	166.967262976947	0.0365
0	3398	167.028857132024	0.036746376620308
0	3398	167.041086124	0.036795292588212
0	3400	167.092262976947	0.037
0	3401	167.128857132024	0.037146376620308
0	3403	167.217262976947	0.0375
0	3404	167.228857132024	0.037546376620308
0	3406	167.328857132024	0.037946376620308
0	3407	167.342262976947	0.038
0	3409	167.428857132024	0.038346376620308
0	3410	167.467262976947	0.0385
0	3411	167.517113572	0.038699402380212
0	3412	167.528857132024	0.038746376620308
0	3414	167.592262976947	0.039
0	3415	167.628857132024	0.039146376620308
0	3417	167.717262976947	0.0395
0	3418	167.728857132024	0.039546376620308
0	3420	167.828857132024	0.039946376620308
0	3421	167.842262976947	0.04
0	3423	167.928857132024	0.040346376620308
0	3424	167.967262976947	0.0405
0	3425	167.996205019	0.040615768168212
0	3426	168.028857132024	0.040746376620308
0	3428	168.092262976947	0.041
0	3429	168.128857132024	0.041146376620308
0	3431	168.217262976947	0.0415
0	3432	168.228857132024	0.041546376620308
0	3434	168.328857132024	0.041946376620308
0	3435	168.342262976947	0.042
0	3437	168.428857132024	0.042346376620308
0	3438	168.467262976947	0.0425
0	3439	168.523900975	0.042726551992212
0	3440	168.528857132024	0.042746376620308
0	3442	168.592262976947	0.043
0	3443	168.628857132024	0.043146376620308
0	3445	168.717262976947	0.0435
0	3446	168.728857132024	0.043546376620308
0	3448	168.828857132024	0.043946376620308
0	3449	168.842262976947	0.044
0	3451	168.928857132024	0.044346376620308
0	3452	168.967262976947	0.044055
0	3452	168.967262976947	0.044055
0	3454	169.028857132024	0.044301376620308
0	3456	169.078512976947	0.0445
0	3457	169.128857132024	0.044701376620308
0	3458	169.186713034	0.044932800228212
0	3459	169.203512976947	0.045
0	3460	169.228857132024	0.045101376620308
0	3462	169.328512976947	0.0455
0	3463	169.328857132024	0.045501376620308
0	3465	169.428857132024	0.045901376620308
0	3466	169.453512976947	0.046
0	3468	169.528857132024	0.046301376620308
0	3470	169.578512976947	0.0465
0	3471	169.628857132024	0.046701376620308
0	3473	169.703512976947	0.047
0	3474	169.728857132024	0.047101376620308
0	3475	169.806932572	0.047413678380212
0	3476	169.828512976947	0.0475
0	3477	169.828857132024	0.047501376620308
0	3479	169.928857132024	0.047901376620308
0	3480	169.953512976947	0.048
0	3482	170.028857132024	0.047818362854105
0	3482	170.028857132024	0.047818362854105
0	3484	170.078512976947	0.0485
0	3485	170.128857132024	0.048701376620308
0	3487	170.203512976947	0.049
0	3488	170.228857132024	0.049101376620308
0	3489	170.314626703	0.049444454904212
0	3490	170.328512976947	0.0495
0	3491	170.328857132024	0.049501376620308
0	3493	170.428857132024	0.049901376620308
0	3494	170.453512976947	0.05
0	3496	170.528857132024	0.05
0	3498	170.628857132024	0.05
0	3500	170.728857132024	0.05
0	3502	170.828857132024	0.05
0	3503	170.920242379	0.05
0	3504	170.928857132024	0.05
0	3506	171.028857132024	0.05
0	3508	171.128857132024	0.05
0	3510	171.228857132024	0.05
0	3512	171.328857132024	0.0495
0	3512	171.328857132024	0.0495
0	3514	171.428857132024	0.0499
0	3515	171.502744981	0.05
0	3516	171.528857132024	0.05
0	3518	171.628857132024	0.05
0	3520	171.728857132024	0.05
0	3522	171.828857132024	0.05
0	3524	171.928857132024	0.05
0	3526	172.028857132024	0.05
0	3528	172.128857132024	0.05
0	3529	172.1911168	0.05
0	3530	172.228857132024	0.05
0	3532	172.328857132024	0.05
0	3534	172.428857132024	0.05
0	3536	172.528857132024	0.05
0	3538	172.628857132024	0.05
0	3540	172.728857132024	0.05
0	3540	172.731776179	0.0495
0	3540	172.731776179	0.0495
0	3541	172.755790283844	0.049596056419376
[...]
2	4629	225.555935460593	0.0495
2	4631	225.655935460593	0.0495
2	4633	225.755935460593	0.0495
2	4633	225.824654125	0.0495
2	4635	225.855935460593	0.0495
2	4637	225.955935460593	0.0495
2	4639	226.055935460593	0.0495
2	4641	226.155935460593	0.0495
2	4643	226.255935460593	0.0495
2	4643	226.309194187	0.0495
2	4645	226.355935460593	0.0495
2	4647	226.455935460593	0.0495
2	4649	226.555935460593	0.0495
2	4651	226.655935460593	0.0495
2	4653	226.755935460593	0.0495
2	4655	226.855935460593	0.0495
2	4657	226.955935460593	0.0495
2	4657	226.95775792	0.0495
2	4659	227.055935460593	0.0495
2	4661	227.155935460593	0.0495
2	4663	227.255935460593	0.0495
2	4665	227.355935460593	0.0495
2	4665	227.453295631	0.0495
2	4667	227.455935460593	0.0495
2	4669	227.555935460593	0.0495
2	4671	227.655935460593	0.0495
2	4673	227.755935460593	0.0495
2	4675	227.855935460593	0.0495
2	4675	227.932348897	0.0495
2	4677	227.955935460593	0.0495
2	4679	228.055935460593	0.0495
2	4681	228.155935460593	0.0495
2	4683	228.255935460593	0.0495
2	4685	228.355935460593	0.0495
2	4687	228.455935460593	0.0495
2	4689	228.555935460593	0.0495
2	4689	228.637061122	0.0495
2	4691	228.655935460593	0.0495
2	4693	228.755935460593	0.0495
2	4695	228.855935460593	0.0495
2	4697	228.955935460593	0.0495
2	4699	229.055935460593	0.0495
2	4699	229.145657026	0.0495
2	4701	229.155935460593	0.0495
2	4703	229.255935460593	0.0495
2	4705	229.355935460593	0.0495
2	4707	229.455935460593	0.0495
2	4709	229.555935460593	0.0495
2	4709	229.624165105	0.049005
2	4709	229.624165105	0.049005
2	4711	229.655935460593	0.049005
2	4712	229.716618476035	0.049005
2	4714	229.755935460593	0.049162267938232
2	4715	229.840368476035	0.0495
2	4717	229.855935460593	0.049562267938232
2	4719	229.955935460593	0.049962267938232
2	4720	229.965368476035	0.05
2	4720	230.049439801	0.05
2	4722	230.055935460593	0.05
2	4724	230.155935460593	0.05
2	4726	230.255935460593	0.05
2	4728	230.355935460593	0.05
2	4730	230.455935460593	0.05
2	4730	230.501278831	0.05
2	4732	230.555935460593	0.05
2	4734	230.655935460593	0.05
2	4736	230.755935460593	0.05
2	4738	230.855935460593	0.0495
2	4738	230.855935460593	0.0495
2	4740	230.955935460593	0.0499
2	4740	231.007448872	0.05
2	4742	231.055935460593	0.05
2	4744	231.155935460593	0.05
2	4746	231.255935460593	0.05
2	4748	231.355935460593	0.05
2	4749	231.449607892	0.05
2	4750	231.455935460593	0.05
2	4752	231.555935460593	0.05
2	4754	231.655935460593	0.05
2	4756	231.755935460593	0.05
2	4758	231.855935460593	0.05
2	4760	231.955935460593	0.05
2	4762	232.055935460593	0.05
2	4762	232.082754808	0.05
2	4764	232.155935460593	0.05
2	4766	232.255935460593	0.0495
2	4766	232.255935460593	0.0495
2	4768	232.355935460593	0.0499
2	4770	232.455935460593	0.05
2	4772	232.555935460593	0.05
2	4774	232.655935460593	0.05
2	4774	232.713277336	0.05
2	4776	232.755935460593	0.05
2	4778	232.855935460593	0.05
2	4780	232.955935460593	0.05
2	4782	233.055935460593	0.05
2	4784	233.155935460593	0.05
2	4786	233.255935460593	0.05
2	4788	233.355935460593	0.05
2	4788	233.357955949	0.05
2	4790	233.455935460593	0.05
2	4793	233.555935460593	0.05
2	4795	233.655935460593	0.05
2	4797	233.755935460593	0.05
2	4799	233.855935460593	0.05
2	4801	233.955935460593	0.05
2	4801	234.018311776	0.05
2	4803	234.055935460593	0.05
2	4805	234.155935460593	0.05
2	4807	234.255935460593	0.05
2	4809	234.355935460593	0.05
2	4811	234.455935460593	0.05
2	4813	234.555935460593	0.05
2	4813	234.567677107	0.05
2	4815	234.655935460593	0.05
2	4817	234.755935460593	0.05
2	4819	234.855935460593	0.05
2	4821	234.955935460593	0.05
2	4823	235.055935460593	0.05
2	4823	235.094362609	0.05
2	4825	235.155935460593	0.05
2	4827	235.255935460593	0.05
2	4829	235.355935460593	0.05
2	4831	235.455935460593	0.05
2	4833	235.555935460593	0.05
2	4835	235.655935460593	0.05
2	4837	235.755935460593	0.05
2	4837	235.817046637	0.05
2	4839	235.855935460593	0.05
2	4841	235.955935460593	0.05
2	4843	236.055935460593	0.05
2	4845	236.155935460593	0.05
2	4847	236.255935460593	0.05
2	4849	236.355935460593	0.05
2	4849	236.40864199	0.05
2	4851	236.455935460593	0.05
2	4853	236.555935460593	0.05
2	4855	236.655935460593	0.05
2	4857	236.755935460593	0.05
2	4859	236.855935460593	0.05
2	4859	236.892651139	0.05
2	4861	236.955935460593	0.05
2	4863	237.055935460593	0.05
2	4865	237.155935460593	0.05
2	4867	237.255935460593	0.05
2	4867	237.298618096	0.05
2	4869	237.355935460593	0.05
2	4871	237.455935460593	0.05
2	4873	237.555935460593	0.05
2	4875	237.655935460593	0.05
2	4877	237.755935460593	0.05
2	4879	237.855935460593	0.05
2	4881	237.955935460593	0.05
2	4881	238.00946473	0.05
2	4883	238.055935460593	0.05
2	4885	238.155935460593	0.05
2	4887	238.255935460593	0.05
2	4889	238.355935460593	0.05
2	4891	238.455935460593	0.05
2	4893	238.555935460593	0.05
2	4895	238.655935460593	0.05
2	4895	238.681685872	0.05
2	4897	238.755935460593	0.05
2	4899	238.855935460593	0.05
2	4901	238.955935460593	0.05
2	4903	239.055935460593	0.05
2	4905	239.155935460593	0.05
2	4907	239.255935460593	0.05
2	4909	239.355935460593	0.05
2	4909	239.374970569	0.05
2	4911	239.455935460593	0.05
2	4913	239.555935460593	0.05
2	4915	239.655935460593	0.05
2	4917	239.755935460593	0.05
2	4919	239.855935460593	0.05
2	4921	239.955935460593	0.05
2	4922	240.055018354	0.05
2	4923	240.055935460593	0.05
2	4925	240.155935460593	0.05
2	4927	240.255935460593	0.05
2	4929	240.355935460593	0.05
2	4931	240.455935460593	0.05
2	4933	240.555935460593	0.05
2	4935	240.655935460593	0.05
2	4935	240.669507487	0.05
2	4937	240.755935460593	0.05
2	4939	240.855935460593	0.05
2	4941	240.955935460593	0.05
2	4943	241.055935460593	0.05
2	4945	241.155935460593	0.05
2	4945	241.225550761	0.05
2	4947	241.255935460593	0.05
2	4949	241.355935460593	0.05
2	4951	241.455935460593	0.05
2	4953	241.555935460593	0.05
2	4955	241.655935460593	0.05
2	4955	241.723784398	0.05
2	4957	241.755935460593	0.05
2	4959	241.855935460593	0.05
2	4961	241.955935460593	0.05
2	4963	242.055935460593	0.05
2	4964	242.143268968	0.05
2	4965	242.155935460593	0.05
2	4967	242.255935460593	0.05
2	4969	242.355935460593	0.05
2	4971	242.455935460593	0.05
2	4973	242.555935460593	0.05
2	4973	242.614756399	0.05
2	4975	242.655935460593	0.05
2	4977	242.755935460593	0.05
2	4979	242.855935460593	0.05
2	4981	242.955935460593	0.05
2	4983	243.055935460593	0.05
2	4983	243.117357184	0.05
2	4985	243.155935460593	0.05
2	4987	243.255935460593	0.05
2	4989	243.355935460593	0.05
2	4991	243.455935460593	0.05
2	4993	243.555935460593	0.05
2	4993	243.620688256	0.05
2	4995	243.655935460593	0.05
2	4997	243.755935460593	0.05
2	4999	243.855935460593	0.05
2	5001	243.955935460593	0.05
2	5003	244.055935460593	0.05
2	5003	244.123577677	0.05
2	5005	244.155935460593	0.05
2	5007	244.255935460593	0.05
2	5009	244.355935460593	0.05
2	5011	244.455935460593	0.05
2	5013	244.555935460593	0.05
2	5013	244.612192573	0.05
2	5015	244.655935460593	0.05
2	5017	244.755935460593	0.05
2	5019	244.855935460593	0.05
2	5021	244.955935460593	0.05
2	5023	245.055935460593	0.05
2	5023	245.093515528	0.05
2	5025	245.155935460593	0.05
2	5027	245.255935460593	0.05
2	5029	245.355935460593	0.05
2	5031	245.455935460593	0.05
2	5032	245.54595679	0.05
2	5033	245.555935460593	0.05
2	5035	245.655935460593	0.05
2	5037	245.755935460593	0.05
2	5037	245.825839267	0.05
2	5039	245.855935460593	0.05
2	5041	245.955935460593	0.05
2	5043	246.055935460593	0.05
2	5045	246.155935460593	0.05
2	5047	246.255935460593	0.05
2	5047	246.334110319	0.05
2	5049	246.355935460593	0.05
2	5051	246.455935460593	0.05
2	5053	246.555935460593	0.05
2	5055	246.655935460593	0.05
2	5057	246.755935460593	0.05
2	5059	246.855935460593	0.05
2	5059	246.879353809	0.05
2	5061	246.955935460593	0.05
2	5063	247.055935460593	0.05
2	5065	247.155935460593	0.05
2	5067	247.255935460593	0.05
2	5067	247.339638649	0.05
2	5069	247.355935460593	0.05
2	5071	247.455935460593	0.05
2	5073	247.555935460593	0.05
2	5073	247.63930741	0.05
2	5075	247.655935460593	0.05
2	5077	247.755935460593	0.05
2	5079	247.855935460593	0.05
2	5081	247.955935460593	0.05
2	5083	248.055935460593	0.05
2	5085	248.155935460593	0.05
2	5085	248.236957153	0.05
2	5087	248.255935460593	0.05
2	5089	248.355935460593	0.05
2	5091	248.455935460593	0.05
2	5093	248.555935460593	0.05
2	5095	248.655935460593	0.05
2	5097	248.755935460593	0.05
2	5098	248.848834435	0.05
2	5099	248.855935460593	0.05
2	5101	248.955935460593	0.05
2	5103	249.055935460593	0.05
2	5105	249.155935460593	0.05
2	5107	249.255935460593	0.05
2	5109	249.355935460593	0.05
2	5111	249.455935460593	0.05
2	5111	249.484049524	0.0495
2	5111	249.484049524	0.0495
2	5113	249.555935460593	0.049787543746372
2	5115	249.655935460593	0.05
2	5117	249.755935460593	0.05
2	5119	249.855935460593	0.05
2	5121	249.955935460593	0.05
2	5121	250.02100801	0.05
2	5123	250.055935460593	0.05
2	5125	250.155935460593	0.05
2	5127	250.255935460593	0.05
2	5129	250.355935460593	0.05
2	5131	250.455935460593	0.05
2	5131	250.51015561	0.05
2	5133	250.555935460593	0.05
2	5135	250.655935460593	0.05
2	5137	250.755935460593	0.05
2	5139	250.855935460593	0.05
2	5141	250.955935460593	0.05
2	5143	251.055935460593	0.05
2	5143	251.091057754	0.05
2	5145	251.155935460593	0.05
2	5147	251.255935460593	0.05
2	5149	251.355935460593	0.05
2	5151	251.455935460593	0.05
2	5153	251.555935460593	0.05
2	5153	251.557750678	0.05
2	5155	251.655935460593	0.05
2	5157	251.755935460593	0.05
2	5159	251.855935460593	0.05
2	5161	251.955935460593	0.05
2	5163	252.055935460593	0.05
2	5165	252.155935460593	0.05
2	5165	252.179076814	0.05
2	5167	252.255935460593	0.05
2	5169	252.355935460593	0.05
2	5171	252.455935460593	0.05
2	5173	252.555935460593	0.05
2	5175	252.655935460593	0.05
2	5177	252.755935460593	0.05
2	5179	252.855935460593	0.05
2	5179	252.862015504	0.05
2	5181	252.955935460593	0.05
2	5183	253.055935460593	0.05
2	5185	253.155935460593	0.05
2	5187	253.255935460593	0.05
2	5187	253.327421758	0.05
2	5189	253.355935460593	0.05
2	5191	253.455935460593	0.05
2	5193	253.555935460593	0.05
2	5195	253.655935460593	0.05
2	5197	253.755935460593	0.05
2	5199	253.855935460593	0.05
2	5201	253.955935460593	0.05
2	5201	253.983099811	0.05
2	5203	254.055935460593	0.05
2	5205	254.155935460593	0.05
2	5207	254.255935460593	0.05
2	5209	254.355935460593	0.05
2	5209	254.396836138	0.05
2	5211	254.455935460593	0.05
2	5213	254.555935460593	0.05
2	5215	254.655935460593	0.05
2	5217	254.755935460593	0.05
2	5219	254.855935460593	0.05
2	5219	254.916877915	0.05
2	5221	254.955935460593	0.05
2	5223	255.055935460593	0.05
2	5225	255.155935460593	0.05
2	5227	255.255935460593	0.05
2	5229	255.355935460593	0.05
2	5229	255.367683487	0.05
2	5231	255.455935460593	0.05
2	5233	255.555935460593	0.05
2	5235	255.655935460593	0.05
2	5237	255.755935460593	0.05
2	5239	255.855935460593	0.05
2	5239	255.929674159	0.05
2	5241	255.955935460593	0.05
2	5242	255.998659996784	0.05
2	5244	256.098659996784	0.05
2	5246	256.198659996784	0.05
2	5248	256.298659996784	0.05
2	5250	256.398659996784	0.05
2	5252	256.498659996784	0.05
2	5252	256.502648221	0.05
2	5254	256.598659996784	0.0495
2	5254	256.598659996784	0.0495
2	5256	256.698659996784	0.0499
2	5258	256.798659996784	0.05
2	5260	256.898659996784	0.05
2	5261	256.964016646	0.05
2	5262	256.998659996784	0.05
2	5264	257.098659996784	0.05
2	5266	257.198659996784	0.05
2	5268	257.298659996784	0.05
2	5270	257.398659996784	0.05
2	5270	257.402839363	0.05
2	5272	257.498659996784	0.05
2	5274	257.598659996784	0.05
2	5276	257.698659996784	0.05
2	5278	257.798659996784	0.05
2	5279	257.87425348	0.05
2	5280	257.898659996784	0.05
2	5282	257.998659996784	0.0495
2	5282	257.998659996784	0.0495
2	5284	258.098659996784	0.0499
2	5286	258.198659996784	0.05
2	5288	258.298659996784	0.05
2	5289	258.353551744	0.05
2	5290	258.398659996784	0.05
2	5292	258.498659996784	0.05
2	5294	258.598659996784	0.05
2	5296	258.698659996784	0.05
2	5297	258.759379939	0.05
2	5298	258.798659996784	0.05
2	5300	258.898659996784	0.05
2	5302	258.998659996784	0.05
2	5304	259.098659996784	0.05
2	5306	259.198659996784	0.05
2	5308	259.298659996784	0.05
2	5308	259.307156701	0.05
2	5310	259.398659996784	0.0495
2	5310	259.398659996784	0.0495
2	5312	259.498659996784	0.0499
2	5314	259.598659996784	0.05
2	5316	259.698659996784	0.05
2	5316	259.724686093	0.05
2	5318	259.798659996784	0.05
2	5320	259.898659996784	0.05
2	5321	259.995671152	0.05
2	5322	259.998659996784	0.05
2	5324	260.098659996784	0.05
2	5326	260.198659996784	0.05
2	5328	260.298659996784	0.05
2	5330	260.398659996784	0.05
2	5332	260.498659996784	0.05
2	5332	260.509294618	0.05
2	5334	260.598659996784	0.05
2	5336	260.698659996784	0.05
2	5338	260.798659996784	0.0495
2	5338	260.798659996784	0.0495
2	5340	260.898659996784	0.0499
2	5341	260.985472864	0.05
2	5342	260.998659996784	0.05
2	5344	261.098659996784	0.05
2	5346	261.198659996784	0.05
2	5347	261.282226771	0.05
2	5348	261.298659996784	0.05
2	5350	261.398659996784	0.05
2	5352	261.498659996784	0.05
2	5354	261.598659996784	0.05
2	5356	261.698659996784	0.05
2	5357	261.757488466	0.05
2	5358	261.798659996784	0.05
2	5360	261.898659996784	0.05
2	5362	261.998659996784	0.05
2	5364	262.098659996784	0.05
2	5366	262.198659996784	0.0495
2	5366	262.198659996784	0.0495
2	5366	262.231514962	0.049631419860864
2	5368	262.298659996784	0.0499
2	5370	262.398659996784	0.05
2	5372	262.498659996784	0.05
2	5374	262.598659996784	0.05
2	5376	262.698659996784	0.05
2	5376	262.727044423	0.05
2	5378	262.798659996784	0.05
2	5380	262.898659996784	0.05
2	5382	262.998659996784	0.05
2	5384	263.098659996784	0.05
2	5386	263.198659996784	0.05
2	5386	263.220892915	0.05
2	5388	263.298659996784	0.05
2	5390	263.398659996784	0.05
2	5392	263.498659996784	0.05
2	5394	263.598659996784	0.0495
2	5394	263.598659996784	0.0495
2	5396	263.698659996784	0.0499
2	5398	263.798659996784	0.05
2	5398	263.834970901	0.05
2	5400	263.898659996784	0.05
2	5402	263.998659996784	0.05
2	5404	264.098659996784	0.05
2	5406	264.198659996784	0.05
2	5408	264.298659996784	0.05
2	5409	264.347264878	0.05
2	5410	264.398659996784	0.05
2	5412	264.498659996784	0.05
2	5414	264.598659996784	0.05
2	5414	264.600788719	0.05
2	5416	264.698659996784	0.05
2	5418	264.798659996784	0.05
2	5420	264.898659996784	0.05
2	5422	264.998659996784	0.0495
2	5422	264.998659996784	0.0495
2	5423	265.08047905	0.049827276212864
2	5424	265.098659996784	0.0499
2	5426	265.198659996784	0.05
2	5428	265.298659996784	0.05
2	5430	265.398659996784	0.05
2	5432	265.498659996784	0.05
2	5434	265.598659996784	0.05
2	5436	265.698659996784	0.05
2	5437	265.773878275	0.05
2	5438	265.798659996784	0.05
2	5440	265.898659996784	0.05
2	5442	265.998659996784	0.05
2	5444	266.098659996784	0.05
2	5446	266.198659996784	0.05
2	5448	266.298659996784	0.05
2	5450	266.398659996784	0.05
2	5452	266.498659996784	0.0495
2	5452	266.498659996784	0.0495
2	5454	266.598659996784	0.0499
2	5455	266.60908452065	0.049941698095464
2	5456	266.645161534	0.049941698095464
2	5457	266.658186324497	0.049941698095464
2	5458	266.672761800631	0.05
2	5459	266.698659996784	0.05
2	5461	266.798659996784	0.05
2	5463	266.898659996784	0.05
2	5465	266.998659996784	0.05
2	5467	267.098659996784	0.05
2	5469	267.198659996784	0.05
2	5471	267.298659996784	0.05
2	5473	267.398659996784	0.05
2	5474	267.442646251	0.05
2	5475	267.498659996784	0.05
2	5477	267.598659996784	0.05
2	5479	267.698659996784	0.05
2	5481	267.798659996784	0.05
2	5483	267.898659996784	0.05
2	5485	267.998659996784	0.05
2	5487	268.098659996784	0.05
2	5489	268.198659996784	0.05
2	5490	268.256957365	0.05
2	5491	268.298659996784	0.05
2	5493	268.398659996784	0.05
2	5495	268.498659996784	0.05
2	5497	268.598659996784	0.05
2	5499	268.698659996784	0.05
2	5501	268.798659996784	0.05
2	5502	268.872652051	0.05
2	5503	268.898659996784	0.05
2	5505	268.998659996784	0.05
2	5507	269.098659996784	0.05
2	5509	269.198659996784	0.05
2	5511	269.298659996784	0.05
2	5513	269.398659996784	0.05
2	5515	269.498659996784	0.05
2	5517	269.598659996784	0.05
2	5517	269.605601044	0.05
2	5519	269.698659996784	0.05
2	5521	269.798659996784	0.05
2	5523	269.898659996784	0.05
2	5525	269.998659996784	0.05
2	5527	270.098659996784	0.05
2	5528	270.178994932	0.05
2	5529	270.198659996784	0.05
2	5531	270.298659996784	0.05
2	5533	270.398659996784	0.05
2	5535	270.498659996784	0.05
2	5537	270.598659996784	0.05
2	5539	270.698659996784	0.05
2	5541	270.798659996784	0.05
2	5541	270.833532058	0.0495
2	5541	270.833532058	0.0495
2	5543	270.898659996784	0.049760511755136
2	5545	270.998659996784	0.05
2	5547	271.098659996784	0.05
2	5549	271.198659996784	0.05
2	5551	271.298659996784	0.05
2	5553	271.398659996784	0.05
2	5553	271.429945612	0.05
2	5555	271.498659996784	0.05
2	5557	271.598659996784	0.05
2	5559	271.698659996784	0.05
2	5561	271.798659996784	0.05
2	5563	271.898659996784	0.05
2	5565	271.998659996784	0.05
2	5567	272.098659996784	0.05
2	5569	272.198659996784	0.05
2	5569	272.204112985	0.05
2	5571	272.298659996784	0.05
2	5573	272.398659996784	0.05
2	5575	272.498659996784	0.05
2	5577	272.598659996784	0.05
2	5579	272.698659996784	0.05
2	5581	272.798659996784	0.05
2	5583	272.898659996784	0.05
2	5583	272.916366967	0.05
2	5585	272.998659996784	0.05
2	5587	273.098659996784	0.05
2	5589	273.198659996784	0.05
2	5591	273.298659996784	0.05
2	5593	273.398659996784	0.05
2	5595	273.498659996784	0.05
2	5597	273.598659996784	0.05
2	5599	273.698659996784	0.05
2	5600	273.79214686	0.05
2	5601	273.798659996784	0.05
2	5603	273.898659996784	0.05
2	5605	273.998659996784	0.05
2	5607	274.098659996784	0.05
2	5609	274.198659996784	0.05
2	5611	274.298659996784	0.05
2	5613	274.398659996784	0.05
2	5615	274.498659996784	0.05
2	5616	274.562627779	0.05
2	5617	274.598659996784	0.05
2	5619	274.698659996784	0.05
2	5621	274.798659996784	0.05
2	5623	274.898659996784	0.05
2	5625	274.998659996784	0.05
2	5627	275.098659996784	0.05
2	5629	275.198659996784	0.05
2	5631	275.298659996784	0.05
2	5633	275.398659996784	0.05
2	5634	275.442296272	0.05
2	5635	275.498659996784	0.05
2	5637	275.598659996784	0.05
2	5639	275.698659996784	0.05
2	5641	275.798659996784	0.05
2	5643	275.898659996784	0.05
2	5645	275.998659996784	0.05
2	5647	276.098659996784	0.05
2	5649	276.198659996784	0.05
2	5649	276.200771101	0.05
2	5651	276.298659996784	0.05
2	5653	276.398659996784	0.05
2	5655	276.498659996784	0.05
2	5657	276.598659996784	0.05
2	5659	276.698659996784	0.05
2	5661	276.798659996784	0.05
2	5663	276.898659996784	0.05
2	5664	276.992782837	0.05
2	5665	276.998659996784	0.05
2	5667	277.098659996784	0.05
2	5669	277.198659996784	0.05
2	5671	277.298659996784	0.05
2	5673	277.398659996784	0.05
2	5675	277.498659996784	0.05
2	5677	277.598659996784	0.05
2	5678	277.632363343	0.05
2	5679	277.698659996784	0.05
2	5681	277.798659996784	0.05
2	5683	277.898659996784	0.05
2	5685	277.998659996784	0.05
2	5687	278.098659996784	0.05
2	5689	278.198659996784	0.05
2	5690	278.263574533	0.05
2	5691	278.298659996784	0.05
2	5693	278.398659996784	0.05
2	5695	278.498659996784	0.05
2	5697	278.598659996784	0.05
2	5699	278.698659996784	0.05
2	5701	278.798659996784	0.05
2	5702	278.815948874133	0.05
2	5704	278.915948874133	0.05
2	5705	278.991191833	0.05
3	0	0	0.004
3	940	46.974101355068	0
3	1115	55.647323433936	0.004
3	1153	57.358295318517	0
3	1480	72.573779169854	0.004
3	2198	107.97861618226	0
3	2206	108.350897570078	0.004
3	2672	131.316589507101	0
3	2777	136.440369374538	0.004
3	2970	145.985563939989	0
3	3965	193.852283100898	0.004
3	4461	217.338789112756	0
3	4466	217.487700621616	0.004
3	4585	223.436402986809	0
3	4712	229.716618476035	0.004
3	5455	266.60908452065	0
3	5457	266.658186324497	0.004
4	0	0	0.004
4	461	23.08057828677	0
4	1206	59.885682236611	0.004
4	1541	75.221133889721	0
4	3377	166.288876090201	0.004
4	3779	184.556587985181	0
4	4137	201.313510200334	0.004
4	4791	233.527368350397	0
5	0	0	0.004
5	940	46.974101355068	0
5	1115	55.647323433936	0.004
5	1153	57.358295318517	0
5	1480	72.573779169854	0.004
5	2198	107.97861618226	0
5	2206	108.350897570078	0.004
5	2672	131.316589507101	0
5	2777	136.440369374538	0.004
5	2970	145.985563939989	0
5	3965	193.852283100898	0.004
5	4461	217.338789112756	0
5	4466	217.487700621616	0.004
5	4585	223.436402986809	0
5	4712	229.716618476035	0.004
5	5455	266.60908452065	0
5	5457	266.658186324497	0.004

