version 2
run Mysterio_ex2-0-20210907-14:40:20-22960
attr configname Mysterio_ex2
attr datetime 20210907-14:40:20
attr experiment Mysterio_ex2
attr inifile omnetpp.ini
attr iterationvars ""
attr iterationvarsf ""
attr measurement ""
attr network MysterioCommunication2
attr processid 22960
attr repetition 0
attr replication #0
attr resultdir results
attr runnumber 0
attr seedset 0
param *.host[*].mobility.numeroDrones 2
param *.numHosts 2
param *.host[*].osgModel "\"3d/drone.ive.100.scale.0,0,90.rot\""
param *.basestation.osgModel "\"3d/car.ive.50.scale.0,0,90.rot\""
param *.canvasVisualizer.energyStorageVisualizer.displayEnergyStorages true
param *.host[*].hasStatus true
param *.host[*].energyStorage.typename "\"SimpleEpEnergyStorage\""
param *.host[*].wlan[*].radio.energyConsumer.typename "\"StateBasedEpEnergyConsumer\""
param *.host[*].energyManagement.typename "\"SimpleEpEnergyManagement\""
param *.host[*].energyStorage.nominalCapacity 0.05J
param *.host[*].energyManagement.nodeShutdownCapacity "0.1 * energyStorage.nominalCapacity"
param *.host[*].energyManagement.nodeStartCapacity "0.5 * energyStorage.nominalCapacity"
param *.host[*].energyStorage.initialCapacity 0.05J
param *.host[*].energyGenerator.typename "\"AlternatingEpEnergyGenerator\""
param *.host[*].energyGenerator.powerGeneration 4mW
param *.host[*].energyGenerator.sleepInterval exponential(25s)
param *.host[*].energyGenerator.generationInterval exponential(25s)
param *.host[*].mobility.typename "\"UAVMobility\""
param *.host[*].mobility.changeInterval 1s
param *.host[*].mobility.initialMovementHeading "uniform(0deg, 360deg)"
param *.host[*].mobility.initialMovementElevation "uniform(-90deg, 90deg)"
param *.host[*].mobility.angleDelta uniform(-10deg,10deg)
param *.host[*].mobility.rotationAxisAngle uniform(-10deg,10deg)
param *.host[*].mobility.speed uniform(10mps,20mps)
param *.host[*].mobility.faceForward false
param *.host[*].mobility.initialX 220m
param *.host[*].mobility.initialY 220m
param *.host[*].mobility.initialZ 80m
param *.visualizer.osgVisualizer.typename "\"IntegratedOsgVisualizer\""
param *.visualizer.osgVisualizer.sceneVisualizer.clearColor "\"skyblue\""
param *.visualizer.osgVisualizer.sceneVisualizer.sceneImage "\"showcases/desert\""
param *.visualizer.osgVisualizer.sceneVisualizer.sceneImageSize 5000m
param *.visualizer.osgVisualizer.sceneVisualizer.axisLength 1000m
param *.visualizer.osgVisualizer.sceneVisualizer.sceneMinX -2000m
param *.visualizer.osgVisualizer.sceneVisualizer.sceneMinY -2000m
param *.visualizer.osgVisualizer.sceneVisualizer.sceneMinZ 0m
param *.visualizer.osgVisualizer.sceneVisualizer.sceneMaxX 3000m
param *.visualizer.osgVisualizer.sceneVisualizer.sceneMaxY 3000m
param *.visualizer.osgVisualizer.sceneVisualizer.sceneMaxZ 1000m
param *.visualizer.osgVisualizer.networkNodeVisualizer.displayModuleName false
param *.visualizer.*.mobilityVisualizer.displayMobility true
param *.visualizer.*.mobilityVisualizer.displayPositions true
param *.visualizer.*.mobilityVisualizer.displayOrientations false
param *.visualizer.*.mobilityVisualizer.displayVelocities true
param *.visualizer.*.mobilityVisualizer.displayMovementTrails true
param *.visualizer.*.mobilityVisualizer.animationSpeed 3
param **.constraintAreaMinX 0m
param **.constraintAreaMinY 0m
param **.constraintAreaMinZ 0m
param **.constraintAreaMaxX 1000m
param **.constraintAreaMaxY 1000m
param **.constraintAreaMaxZ 1000m
param **.networkConfiguratorModule "\"\""

vector 0 MysterioCommunication2.host[0].energyStorage residualEnergyCapacity:vector ETV
attr interpolationmode linear
attr source residualEnergyCapacityChanged
attr title "Residual energy capacity, vector"
vector 1 MysterioCommunication2.host[0].energyGenerator powerGeneration:vector ETV
attr interpolationmode sample-hold
attr source powerGenerationChanged
attr title "Power generation, vector"
vector 2 MysterioCommunication2.host[1].energyStorage residualEnergyCapacity:vector ETV
attr interpolationmode linear
attr source residualEnergyCapacityChanged
attr title "Residual energy capacity, vector"
vector 3 MysterioCommunication2.host[1].energyGenerator powerGeneration:vector ETV
attr interpolationmode sample-hold
attr source powerGenerationChanged
attr title "Power generation, vector"
vector 4 MysterioCommunication2.host[0].energyStorage powerGeneration:vector ETV
attr interpolationmode sample-hold
attr source powerGenerationChanged
attr title "Power generation, vector"
vector 5 MysterioCommunication2.host[1].energyStorage powerGeneration:vector ETV
attr interpolationmode sample-hold
attr source powerGenerationChanged
attr title "Power generation, vector"
0	0	0	0.05
0	0	0.1	0.05
0	2	0.156239899	0.05
0	3	0.2	0.05
0	5	0.3	0.05
0	6	0.385870348	0.05
0	7	0.4	0.05
0	9	0.5	0.05
0	11	0.6	0.05
0	13	0.7	0.05
0	15	0.8	0.05
0	16	0.812057833	0.05
0	17	0.9	0.05
0	19	1	0.05
0	21	1.1	0.05
0	23	1.2	0.05
0	25	1.3	0.05
0	26	1.39082134	0.05
0	27	1.4	0.05
0	29	1.5	0.05
0	31	1.6	0.05
0	33	1.7	0.05
0	35	1.8	0.05
0	36	1.8139381	0.05
0	37	1.9	0.05
0	39	2	0.05
0	40	2.072942035	0.05
0	41	2.1	0.05
0	43	2.2	0.05
0	45	2.3	0.05
0	46	2.362228186	0.05
0	47	2.4	0.05
0	49	2.5	0.05
0	51	2.6	0.05
0	53	2.7	0.05
0	54	2.777259238	0.05
0	55	2.8	0.05
0	57	2.9	0.05
0	59	3	0.05
0	61	3.1	0.05
0	62	3.192785569	0.05
0	63	3.2	0.05
0	65	3.3	0.05
0	67	3.4	0.05
0	68	3.425848312	0.05
0	69	3.5	0.05
0	71	3.6	0.05
0	72	3.667208833	0.05
0	73	3.7	0.05
0	75	3.8	0.05
0	77	3.9	0.05
0	78	3.919734148	0.05
0	79	4	0.05
0	81	4.1	0.05
0	82	4.158761728	0.05
0	83	4.2	0.05
0	85	4.3	0.05
0	86	4.398342127	0.05
0	87	4.4	0.05
0	89	4.5	0.05
0	91	4.6	0.05
0	93	4.7	0.05
0	95	4.8	0.05
0	96	4.858313176	0.05
0	97	4.9	0.05
0	99	5	0.05
0	101	5.1	0.05
0	103	5.2	0.05
0	104	5.28794239	0.05
0	105	5.3	0.05
0	107	5.4	0.05
0	109	5.5	0.05
0	110	5.532026464	0.05
0	111	5.6	0.05
0	113	5.7	0.05
0	115	5.8	0.05
0	117	5.9	0.05
0	118	5.944892026	0.05
0	119	6	0.05
0	121	6.1	0.05
0	123	6.2	0.05
0	124	6.234753499	0.05
0	125	6.3	0.05
0	127	6.4	0.05
0	129	6.5	0.05
0	130	6.50126764	0.05
0	131	6.6	0.05
0	133	6.7	0.05
0	135	6.8	0.05
0	137	6.9	0.05
0	138	6.991594384	0.05
0	139	7	0.05
0	141	7.1	0.05
0	143	7.2	0.05
0	144	7.247192761	0.05
0	145	7.3	0.05
0	147	7.4	0.05
0	149	7.5	0.05
0	150	7.543532443	0.05
0	151	7.6	0.05
0	153	7.7	0.05
0	155	7.8	0.05
0	157	7.9	0.05
0	158	7.961854066	0.05
0	159	8	0.05
0	161	8.1	0.05
0	163	8.2	0.05
0	165	8.3	0.05
0	167	8.4	0.05
0	168	8.440763206	0.05
0	169	8.5	0.05
0	171	8.6	0.05
0	173	8.7	0.05
0	175	8.8	0.05
0	176	8.881889959	0.05
0	177	8.9	0.05
0	179	9	0.05
0	181	9.1	0.05
0	182	9.124277104	0.05
0	183	9.2	0.05
0	185	9.3	0.05
0	187	9.4	0.05
0	188	9.422184403	0.05
0	189	9.5	0.05
0	191	9.6	0.05
0	192	9.689319736	0.05
0	193	9.7	0.05
0	195	9.8	0.05
0	197	9.9	0.05
0	199	10	0.05
0	201	10.1	0.05
0	202	10.103270599	0.05
0	203	10.2	0.05
0	205	10.3	0.05
0	206	10.334821984	0.05
0	207	10.4	0.05
0	209	10.5	0.05
0	211	10.6	0.05
0	213	10.7	0.05
0	214	10.718500171	0.05
0	215	10.8	0.05
0	217	10.9	0.05
0	218	10.991977198	0.05
0	219	11	0.05
0	221	11.1	0.05
0	223	11.2	0.05
0	225	11.3	0.05
0	227	11.4	0.05
0	228	11.419152685	0.05
0	229	11.5	0.05
0	231	11.6	0.05
0	232	11.648878087	0.05
0	233	11.7	0.05
0	235	11.8	0.05
0	237	11.9	0.05
0	239	12	0.05
0	241	12.1	0.05
0	243	12.2	0.05
0	244	12.252056926	0.05
0	245	12.3	0.05
0	247	12.4	0.05
0	249	12.5	0.05
0	251	12.6	0.05
0	253	12.7	0.05
0	255	12.8	0.05
0	256	12.819824989	0.05
0	257	12.9	0.05
0	259	13	0.05
0	261	13.1	0.05
0	263	13.2	0.05
0	265	13.3	0.05
0	266	13.39590391	0.05
0	267	13.4	0.05
0	269	13.5	0.05
0	271	13.6	0.05
0	273	13.7	0.05
0	275	13.8	0.05
0	277	13.9	0.05
0	278	13.968237973	0.05
0	279	14	0.05
0	281	14.1	0.05
0	283	14.2	0.05
0	285	14.3	0.05
0	287	14.4	0.05
0	288	14.491000309	0.05
0	289	14.5	0.05
0	291	14.6	0.05
0	293	14.7	0.05
0	295	14.8	0.05
0	297	14.9	0.05
0	298	14.93875951	0.05
0	299	15	0.05
0	301	15.1	0.05
0	303	15.2	0.05
0	304	15.227339539	0.05
0	305	15.3	0.05
0	307	15.4	0.05
0	309	15.5	0.05
0	311	15.6	0.05
0	312	15.62277979	0.05
0	313	15.7	0.05
0	315	15.8	0.05
0	317	15.9	0.05
0	319	16	0.05
0	320	16.056503053	0.05
0	321	16.1	0.05
0	323	16.2	0.05
0	325	16.3	0.05
0	326	16.33349953	0.05
0	327	16.4	0.05
0	329	16.5	0.05
0	331	16.6	0.05
0	333	16.7	0.05
0	335	16.8	0.05
0	336	16.821310813	0.05
0	337	16.9	0.05
0	339	17	0.05
0	341	17.1	0.05
0	343	17.2	0.05
0	344	17.231059936	0.05
0	345	17.3	0.05
0	347	17.4	0.05
0	349	17.5	0.05
0	350	17.525147659	0.05
0	351	17.6	0.05
0	353	17.7	0.05
0	354	17.794140376	0.05
0	355	17.8	0.05
0	357	17.9	0.05
0	359	18	0.05
0	361	18.1	0.05
0	362	18.19831357	0.05
0	363	18.2	0.05
0	365	18.3	0.05
0	367	18.4	0.05
0	369	18.5	0.05
0	370	18.595036993	0.05
0	371	18.6	0.05
0	373	18.7	0.05
0	375	18.8	0.05
0	377	18.9	0.05
0	378	18.99442843	0.05
0	379	19	0.05
0	381	19.1	0.05
0	383	19.2	0.05
0	384	19.209040192	0.05
0	385	19.3	0.05
0	387	19.4	0.05
0	389	19.5	0.05
0	390	19.50751147	0.05
0	391	19.6	0.05
0	393	19.7	0.05
0	395	19.8	0.05
0	397	19.9	0.05
0	398	19.931574856	0.05
0	399	20	0.05
0	401	20.1	0.05
0	402	20.197816759	0.05
0	403	20.2	0.05
0	405	20.3	0.05
0	407	20.4	0.05
0	409	20.5	0.05
0	411	20.6	0.05
0	413	20.7	0.05
0	415	20.8	0.05
0	416	20.82195685	0.05
0	417	20.9	0.05
0	419	21	0.05
0	421	21.1	0.05
0	423	21.2	0.05
0	424	21.236557744	0.05
0	425	21.3	0.05
0	427	21.4	0.05
0	429	21.5	0.05
0	430	21.504106834	0.05
0	431	21.6	0.05
0	433	21.7	0.05
0	434	21.726243526	0.05
0	435	21.8	0.05
0	437	21.9	0.05
0	439	22	0.05
0	441	22.1	0.05
0	442	22.168447747	0.05
0	443	22.2	0.05
0	445	22.3	0.05
0	447	22.4	0.05
0	449	22.5	0.05
0	451	22.6	0.05
0	452	22.627914076	0.05
0	453	22.7	0.05
0	455	22.8	0.05
0	457	22.9	0.05
0	459	23	0.05
0	461	23.08057828677	0.05
0	462	23.1	0.05
0	463	23.172705208	0.05
0	464	23.2	0.05
0	466	23.3	0.05
0	468	23.4	0.05
0	470	23.5	0.05
0	472	23.6	0.05
0	474	23.7	0.05
0	475	23.734890013	0.05
0	476	23.8	0.05
0	478	23.9	0.05
0	480	24	0.05
0	482	24.1	0.0495
0	482	24.1	0.0495
0	484	24.2	0.0495
0	486	24.3	0.0495
0	487	24.374034838	0.0495
0	488	24.4	0.0495
0	490	24.5	0.0495
0	492	24.6	0.0495
0	494	24.7	0.0495
0	496	24.8	0.0495
0	497	24.819458992	0.0495
0	498	24.9	0.0495
0	500	25	0.0495
0	502	25.1	0.0495
0	504	25.2	0.0495
0	505	25.213317754	0.0495
0	506	25.3	0.0495
0	508	25.4	0.0495
0	510	25.5	0.049005
0	510	25.5	0.049005
0	511	25.50122977	0.049005
0	512	25.6	0.049005
0	514	25.7	0.049005
0	516	25.8	0.049005
0	518	25.9	0.049005
0	519	25.948992757	0.049005
0	520	26	0.049005
0	522	26.1	0.049005
0	524	26.2	0.049005
0	526	26.3	0.049005
0	528	26.4	0.049005
0	529	26.41692628	0.049005
0	530	26.5	0.049005
0	532	26.6	0.049005
0	533	26.673829117	0.049005
0	534	26.7	0.049005
0	536	26.8	0.04851495
0	536	26.8	0.04851495
0	538	26.9	0.04851495
0	540	27	0.04851495
0	542	27.1	0.04851495
0	543	27.134658406	0.04851495
0	544	27.2	0.04851495
0	546	27.3	0.04851495
0	548	27.4	0.04851495
0	550	27.5	0.04851495
0	551	27.56298064	0.04851495
0	552	27.6	0.04851495
0	554	27.7	0.04851495
0	556	27.8	0.04851495
0	558	27.9	0.04851495
0	560	28	0.04851495
0	561	28.026492484	0.04851495
0	562	28.1	0.04851495
0	564	28.2	0.0480298005
0	564	28.2	0.0480298005
0	565	28.299312382	0.0480298005
0	566	28.3	0.0480298005
0	568	28.4	0.0480298005
0	570	28.5	0.0480298005
0	572	28.6	0.0480298005
0	574	28.7	0.0480298005
0	575	28.722626644	0.0480298005
0	576	28.8	0.0480298005
0	578	28.9	0.0480298005
0	579	28.997927422	0.0480298005
0	580	29	0.0480298005
0	582	29.1	0.0480298005
0	584	29.2	0.0480298005
0	586	29.3	0.0480298005
0	588	29.4	0.0480298005
0	589	29.454228196	0.0480298005
0	590	29.5	0.047549502495
0	590	29.5	0.047549502495
0	592	29.6	0.047549502495
0	594	29.7	0.047549502495
0	596	29.8	0.047549502495
0	598	29.9	0.047549502495
0	600	30	0.047549502495
0	601	30.003864868	0.047549502495
0	602	30.1	0.047549502495
0	604	30.2	0.047549502495
0	605	30.263177404	0.047549502495
0	606	30.3	0.047549502495
0	608	30.4	0.047549502495
0	610	30.5	0.047549502495
0	611	30.53440597	0.047549502495
0	612	30.6	0.047549502495
0	614	30.7	0.047549502495
0	616	30.8	0.047549502495
0	618	30.9	0.04707400747005
0	618	30.9	0.04707400747005
0	619	30.962077339	0.04707400747005
0	620	31	0.04707400747005
0	622	31.1	0.04707400747005
0	624	31.2	0.04707400747005
0	626	31.3	0.04707400747005
0	627	31.373425492	0.04707400747005
0	628	31.4	0.04707400747005
0	630	31.5	0.04707400747005
0	632	31.6	0.04707400747005
0	634	31.7	0.04707400747005
0	636	31.8	0.04707400747005
0	637	31.806699397	0.04707400747005
0	638	31.9	0.04707400747005
0	640	32	0.04707400747005
0	642	32.1	0.04707400747005
0	644	32.2	0.04707400747005
0	645	32.29061203	0.04660326739535
0	645	32.29061203	0.04660326739535
0	646	32.3	0.04660326739535
0	648	32.4	0.04660326739535
0	650	32.5	0.04660326739535
0	652	32.6	0.04660326739535
0	654	32.7	0.04660326739535
0	655	32.716028116	0.04660326739535
0	656	32.8	0.04660326739535
0	658	32.9	0.04660326739535
0	659	32.988662593	0.04660326739535
0	660	33	0.04660326739535
0	662	33.1	0.04660326739535
0	664	33.2	0.04660326739535
0	665	33.233331796	0.04660326739535
0	666	33.3	0.04660326739535
0	668	33.4	0.04660326739535
0	670	33.5	0.04660326739535
0	672	33.6	0.046137234721396
0	672	33.6	0.046137234721396
0	673	33.641241853	0.046137234721396
0	674	33.7	0.046137234721396
0	676	33.8	0.046137234721396
0	677	33.899948692	0.046137234721396
0	678	33.9	0.046137234721396
0	680	34	0.046137234721396
0	682	34.1	0.046137234721396
0	683	34.192776646	0.046137234721396
0	684	34.2	0.046137234721396
0	686	34.3	0.046137234721396
0	688	34.4	0.046137234721396
0	690	34.5	0.046137234721396
0	692	34.6	0.046137234721396
0	693	34.667438356	0.046137234721396
0	694	34.7	0.046137234721396
0	696	34.8	0.046137234721396
0	698	34.9	0.045675862374182
0	698	34.9	0.045675862374182
0	700	35	0.045675862374182
0	701	35.068651471	0.045675862374182
0	702	35.1	0.045675862374182
0	704	35.2	0.045675862374182
0	706	35.3	0.045675862374182
0	708	35.4	0.045675862374182
0	710	35.5	0.045675862374182
0	711	35.542249855	0.045675862374182
0	712	35.6	0.045675862374182
0	714	35.7	0.045675862374182
0	716	35.8	0.045675862374182
0	718	35.9	0.045675862374182
0	720	36	0.045675862374182
0	721	36.019985728	0.045675862374182
0	722	36.1	0.045675862374182
0	724	36.2	0.045675862374182
0	726	36.3	0.04521910375044
0	726	36.3	0.04521910375044
0	728	36.4	0.04521910375044
0	729	36.498933313	0.04521910375044
0	730	36.5	0.04521910375044
0	732	36.6	0.04521910375044
0	734	36.7	0.04521910375044
0	736	36.722021155953	0.04521910375044
0	737	36.792245218343	0.0455
0	738	36.8	0.045531019126628
0	740	36.9	0.045931019126628
0	742	36.917245218343	0.046
0	743	37	0.046331019126628
0	745	37.042245218343	0.0465
0	745	37.093521409	0.046705104762628
0	746	37.1	0.046731019126628
0	748	37.167245218343	0.047
0	749	37.2	0.047131019126628
0	751	37.292245218343	0.0475
0	752	37.3	0.047531019126628
0	754	37.4	0.047931019126628
0	756	37.417245218343	0.04752
0	756	37.417245218343	0.04752
0	757	37.5	0.047851019126628
0	759	37.537245218343	0.048
0	760	37.6	0.048251019126628
0	761	37.652589235	0.048461376066628
0	762	37.662245218343	0.0485
0	763	37.7	0.048651019126628
0	765	37.787245218343	0.049
0	766	37.8	0.049051019126628
0	768	37.9	0.049451019126628
0	770	37.912245218343	0.0495
0	771	38	0.049851019126628
0	773	38.037245218343	0.05
0	773	38.047040212	0.05
0	774	38.1	0.05
0	776	38.2	0.05
0	778	38.3	0.05
0	779	38.341219432	0.05
0	780	38.4	0.05
0	782	38.5	0.05
0	784	38.6	0.0495
0	784	38.6	0.0495
0	786	38.60181638505	0.0495072655402
0	787	38.7	0.0495072655402
0	789	38.8	0.0495072655402
0	790	38.877597919	0.0495072655402
0	791	38.9	0.0495072655402
0	793	39	0.0495072655402
0	795	39.1	0.0495072655402
0	797	39.2	0.0495072655402
0	799	39.3	0.0495072655402
0	801	39.4	0.0495072655402
0	802	39.420646735	0.0495072655402
0	803	39.5	0.0495072655402
0	805	39.6	0.0495072655402
0	807	39.7	0.0495072655402
0	809	39.8	0.0495072655402
0	811	39.9	0.0495072655402
0	813	40	0.0495072655402
0	814	40.071774394	0.0495072655402
0	815	40.1	0.0495072655402
0	817	40.2	0.0495072655402
0	819	40.3	0.0495072655402
0	821	40.4	0.0495072655402
0	823	40.5	0.0495072655402
0	825	40.6	0.0495072655402
0	826	40.64298541	0.0495072655402
0	827	40.7	0.0495072655402
0	829	40.8	0.0495072655402
0	831	40.9	0.0495072655402
0	833	41	0.0495072655402
0	835	41.1	0.0495072655402
0	837	41.2	0.0495072655402
0	838	41.227300393	0.0495072655402
0	839	41.3	0.0495072655402
0	841	41.4	0.0495072655402
0	843	41.5	0.0495072655402
0	845	41.6	0.0495072655402
0	847	41.7	0.0495072655402
0	849	41.8	0.0495072655402
0	850	41.820256771	0.0495072655402
0	851	41.9	0.0495072655402
0	853	42	0.0495072655402
0	855	42.1	0.0495072655402
0	857	42.2	0.0495072655402
0	858	42.297512413	0.0495072655402
0	859	42.3	0.0495072655402
0	861	42.4	0.0495072655402
0	863	42.5	0.0495072655402
0	865	42.6	0.0495072655402
0	867	42.7	0.0495072655402
0	868	42.747204652	0.0495072655402
0	869	42.8	0.0495072655402
0	871	42.9	0.0495072655402
0	873	43	0.0495072655402
0	875	43.1	0.0495072655402
0	877	43.2	0.0495072655402
0	878	43.278991699	0.0495072655402
0	879	43.3	0.0495072655402
0	881	43.4	0.0495072655402
0	883	43.5	0.0495072655402
0	885	43.6	0.0495072655402
0	887	43.7	0.0495072655402
0	889	43.8	0.0495072655402
0	890	43.875497029	0.0495072655402
0	891	43.9	0.0495072655402
0	893	44	0.0495072655402
0	895	44.1	0.0495072655402
0	897	44.2	0.0495072655402
0	899	44.3	0.0495072655402
0	901	44.4	0.0495072655402
0	902	44.415951358	0.0495072655402
0	903	44.5	0.0495072655402
0	905	44.6	0.0495072655402
0	907	44.7	0.0495072655402
0	909	44.8	0.0495072655402
0	911	44.9	0.0495072655402
0	913	45	0.0495072655402
0	915	45.1	0.0495072655402
0	916	45.136750696	0.0495072655402
0	917	45.2	0.0495072655402
0	919	45.3	0.0495072655402
0	921	45.4	0.0495072655402
0	923	45.5	0.0495072655402
0	925	45.6	0.0495072655402
0	926	45.636012379	0.0495072655402
0	927	45.7	0.0495072655402
0	929	45.8	0.0495072655402
0	931	45.9	0.0495072655402
0	933	46	0.0495072655402
0	935	46.1	0.0495072655402
0	937	46.2	0.0495072655402
0	938	46.209390427	0.0495072655402
0	939	46.3	0.0495072655402
0	941	46.4	0.0495072655402
0	943	46.5	0.0495072655402
0	945	46.6	0.0495072655402
0	946	46.625450173	0.0495072655402
0	947	46.7	0.0495072655402
0	949	46.8	0.0495072655402
0	951	46.9	0.0495072655402
0	954	47	0.0495072655402
0	956	47.1	0.0495072655402
0	957	47.144803078	0.049012192884798
0	957	47.144803078	0.049012192884798
0	958	47.2	0.049012192884798
0	960	47.3	0.049012192884798
0	962	47.4	0.049012192884798
0	964	47.5	0.049012192884798
0	966	47.6	0.049012192884798
0	967	47.654568781	0.049012192884798
0	968	47.7	0.049012192884798
0	970	47.8	0.049012192884798
0	972	47.9	0.049012192884798
0	974	48	0.049012192884798
0	975	48.057279082	0.049012192884798
0	976	48.1	0.049012192884798
0	978	48.2	0.049012192884798
0	980	48.3	0.049012192884798
0	982	48.4	0.049012192884798
0	983	48.49422991	0.049012192884798
0	984	48.5	0.04852207095595
0	984	48.5	0.04852207095595
0	986	48.6	0.04852207095595
0	988	48.7	0.04852207095595
0	990	48.8	0.04852207095595
0	992	48.9	0.04852207095595
0	993	48.985588279	0.04852207095595
0	994	49	0.04852207095595
0	996	49.1	0.04852207095595
0	998	49.2	0.04852207095595
0	999	49.270365076	0.04852207095595
0	1000	49.3	0.04852207095595
0	1002	49.312842104821	0.04852207095595
0	1003	49.4	0.048870702536666
0	1005	49.432324365833	0.049
0	1006	49.5	0.049270702536668
0	1008	49.557324365833	0.0495
0	1009	49.6	0.049670702536668
0	1011	49.682324365833	0.05
0	1011	49.697042047	0.05
0	1012	49.7	0.0495
0	1012	49.7	0.0495
0	1014	49.8	0.0499
0	1016	49.9	0.05
0	1018	50	0.05
0	1020	50.1	0.05
0	1021	50.189101828	0.05
0	1022	50.2	0.05
0	1024	50.3	0.05
0	1026	50.4	0.05
0	1028	50.5	0.05
0	1030	50.6	0.05
0	1031	50.654690224	0.05
0	1033	50.7	0.05
0	1035	50.8	0.05
0	1037	50.9	0.05
0	1039	51	0.05
0	1041	51.1	0.05
0	1041	51.147566149	0.0495
0	1041	51.147566149	0.0495
0	1043	51.2	0.049709735404
0	1045	51.3	0.05
0	1047	51.4	0.05
0	1049	51.5	0.05
0	1051	51.6	0.05
0	1051	51.60923572	0.05
0	1053	51.7	0.05
0	1055	51.8	0.05
0	1056	51.89216596	0.05
0	1057	51.9	0.05
0	1059	52	0.05
0	1061	52.1	0.05
0	1062	52.189556329	0.05
0	1063	52.2	0.05
0	1065	52.3	0.05
0	1067	52.4	0.05
0	1069	52.5	0.05
0	1070	52.596235873	0.05
0	1071	52.6	0.05
0	1073	52.7	0.05
0	1075	52.8	0.05
0	1076	52.89117676	0.05
0	1077	52.9	0.05
0	1079	53	0.05
0	1081	53.1	0.05
0	1083	53.2	0.05
0	1085	53.3	0.05
0	1085	53.373546013	0.05
0	1087	53.4	0.05
0	1089	53.5	0.05
0	1091	53.6	0.05
0	1093	53.7	0.05
0	1093	53.761535689	0.05
0	1095	53.8	0.05
0	1097	53.9	0.05
0	1099	54	0.05
0	1101	54.1	0.05
0	1103	54.2	0.05
0	1103	54.248548861	0.05
0	1105	54.3	0.05
0	1107	54.4	0.05
0	1109	54.5	0.05
0	1111	54.6	0.05
0	1113	54.7	0.05
0	1113	54.705286453	0.05
0	1115	54.8	0.05
0	1117	54.9	0.05
0	1119	55	0.05
0	1121	55.1	0.05
0	1123	55.2	0.05
0	1124	55.287329977	0.05
0	1125	55.3	0.05
0	1127	55.4	0.05
0	1129	55.5	0.05
0	1129	55.581965446	0.05
0	1131	55.6	0.05
0	1133	55.7	0.05
0	1135	55.8	0.05
0	1135	55.858801666	0.05
0	1137	55.9	0.05
0	1139	56	0.05
0	1141	56.1	0.05
0	1141	56.130973612	0.05
0	1143	56.2	0.05
0	1145	56.3	0.05
0	1147	56.4	0.05
0	1149	56.5	0.05
0	1150	56.597647171	0.05
0	1151	56.6	0.05
0	1153	56.7	0.05
0	1154	56.769634267061	0.05
0	1156	56.869634267061	0.05
0	1157	56.891978248	0.05
0	1158	56.969634267061	0.05
0	1160	57.069634267061	0.05
0	1162	57.169634267061	0.05
0	1164	57.269634267061	0.05
0	1166	57.369634267061	0.05
0	1167	57.395393299	0.05
0	1168	57.469634267061	0.05
0	1170	57.569634267061	0.05
0	1172	57.669634267061	0.05
0	1174	57.769634267061	0.05
0	1176	57.869634267061	0.05
0	1178	57.969634267061	0.0495
0	1178	57.969634267061	0.0495
0	1179	58.06007599	0.049861766891756
0	1180	58.069634267061	0.0499
0	1182	58.169634267061	0.05
0	1184	58.269634267061	0.05
0	1186	58.369634267061	0.05
0	1188	58.469634267061	0.05
0	1190	58.569634267061	0.05
0	1192	58.669634267061	0.05
0	1193	58.693823188	0.05
0	1194	58.769634267061	0.05
0	1196	58.869634267061	0.05
0	1198	58.969634267061	0.05
0	1200	59.069634267061	0.05
0	1202	59.169634267061	0.05
0	1204	59.269634267061	0.05
0	1205	59.339158042	0.05
0	1206	59.369634267061	0.0495
0	1206	59.369634267061	0.0495
0	1208	59.469634267061	0.0499
0	1210	59.569634267061	0.05
0	1212	59.669634267061	0.05
0	1214	59.769634267061	0.05
0	1216	59.869634267061	0.05
0	1218	59.969634267061	0.05
0	1219	60.012952801	0.05
0	1220	60.069634267061	0.05
0	1222	60.169634267061	0.05
0	1224	60.269634267061	0.05
0	1226	60.369634267061	0.05
0	1228	60.469634267061	0.05
0	1229	60.508976521	0.05
0	1230	60.569634267061	0.05
0	1232	60.669634267061	0.05
0	1234	60.769634267061	0.05
0	1236	60.869634267061	0.0495
0	1236	60.869634267061	0.0495
0	1238	60.969634267061	0.0499
0	1238	60.977759416	0.049932500595756
0	1240	61.069634267061	0.05
0	1242	61.169634267061	0.05
0	1244	61.269634267061	0.05
0	1246	61.369634267061	0.05
0	1248	61.469634267061	0.05
0	1250	61.569634267061	0.05
0	1250	61.575039373	0.05
0	1252	61.669634267061	0.05
0	1254	61.769634267061	0.05
0	1256	61.869634267061	0.05
0	1258	61.969634267061	0.05
0	1260	62.069634267061	0.05
0	1262	62.169634267061	0.05
0	1262	62.170999834	0.05
0	1264	62.269634267061	0.0495
0	1264	62.269634267061	0.0495
0	1266	62.369634267061	0.0499
0	1268	62.469634267061	0.05
0	1270	62.569634267061	0.05
0	1272	62.669634267061	0.05
0	1273	62.740652368	0.05
0	1274	62.769634267061	0.05
0	1276	62.869634267061	0.05
0	1278	62.969634267061	0.05
0	1280	63.069634267061	0.05
0	1282	63.169634267061	0.05
0	1284	63.269634267061	0.05
0	1284	63.282451378	0.05
0	1286	63.369634267061	0.05
0	1288	63.469634267061	0.05
0	1290	63.569634267061	0.05
0	1292	63.669634267061	0.05
0	1294	63.769634267061	0.0495
0	1294	63.769634267061	0.0495
0	1294	63.776806819	0.049528690207756
0	1296	63.869634267061	0.0499
0	1298	63.969634267061	0.05
0	1300	64.069634267061	0.05
0	1302	64.169634267061	0.05
0	1304	64.269634267061	0.05
0	1305	64.289706301	0.05
0	1306	64.369634267061	0.05
0	1308	64.469634267061	0.05
0	1310	64.569634267061	0.05
0	1312	64.669634267061	0.05
0	1313	64.717962943	0.05
0	1314	64.769634267061	0.05
0	1316	64.869634267061	0.05
0	1318	64.969634267061	0.05
0	1319	65.01281221	0.05
0	1320	65.069634267061	0.0495
0	1320	65.069634267061	0.0495
0	1322	65.169634267061	0.0499
0	1324	65.269634267061	0.05
0	1326	65.369634267061	0.05
0	1327	65.463033871	0.05
0	1328	65.469634267061	0.05
0	1330	65.569634267061	0.05
0	1332	65.669634267061	0.05
0	1334	65.769634267061	0.05
0	1336	65.869634267061	0.05
0	1337	65.929139665	0.05
0	1338	65.969634267061	0.05
0	1340	66.069634267061	0.05
0	1342	66.169634267061	0.05
0	1344	66.269634267061	0.05
0	1346	66.369634267061	0.05
0	1347	66.401692948	0.05
0	1348	66.469634267061	0.0495
0	1348	66.469634267061	0.0495
0	1350	66.569634267061	0.0499
0	1352	66.669634267061	0.05
0	1354	66.769634267061	0.05
0	1355	66.849524974	0.05
0	1356	66.869634267061	0.05
0	1358	66.969634267061	0.05
0	1360	67.069634267061	0.05
0	1362	67.169634267061	0.05
0	1364	67.269634267061	0.05
0	1365	67.337537479	0.05
0	1366	67.369634267061	0.05
0	1368	67.469634267061	0.05
0	1370	67.569634267061	0.05
0	1372	67.669634267061	0.05
0	1374	67.769634267061	0.05
0	1375	67.795707325	0.05
0	1376	67.869634267061	0.0495
0	1376	67.869634267061	0.0495
0	1378	67.969634267061	0.0499
0	1380	68.069634267061	0.05
0	1382	68.169634267061	0.05
0	1383	68.252059996	0.05
0	1384	68.269634267061	0.05
0	1386	68.369634267061	0.05
0	1388	68.469634267061	0.05
0	1390	68.569634267061	0.05
0	1392	68.669634267061	0.05
0	1393	68.768924221	0.05
0	1394	68.769634267061	0.05
0	1396	68.869634267061	0.05
0	1398	68.969634267061	0.05
0	1400	69.069634267061	0.05
0	1402	69.169634267061	0.05
0	1403	69.260479225	0.05
0	1404	69.269634267061	0.0495
0	1404	69.269634267061	0.0495
0	1406	69.369634267061	0.0499
0	1408	69.469634267061	0.05
0	1410	69.569634267061	0.05
0	1411	69.658916662	0.05
0	1412	69.669634267061	0.05
0	1414	69.769634267061	0.05
0	1416	69.869634267061	0.05
0	1417	69.955638565	0.05
0	1418	69.969634267061	0.05
0	1420	70.069634267061	0.05
0	1422	70.169634267061	0.05
0	1424	70.269634267061	0.05
0	1426	70.369634267061	0.05
0	1428	70.469634267061	0.05
0	1430	70.569634267061	0.05
0	1431	70.602412795	0.05
0	1432	70.669634267061	0.0495
0	1432	70.669634267061	0.0495
0	1434	70.769634267061	0.0499
0	1436	70.869634267061	0.05
0	1438	70.969634267061	0.05
0	1440	71.069634267061	0.05
0	1442	71.169634267061	0.05
0	1443	71.239754533	0.05
0	1444	71.269634267061	0.05
0	1446	71.369634267061	0.05
0	1448	71.469634267061	0.05
0	1450	71.569634267061	0.05
0	1452	71.669634267061	0.05
0	1453	71.707339774	0.05
0	1454	71.769634267061	0.05
0	1456	71.869634267061	0.05
0	1458	71.969634267061	0.05
0	1460	72.069634267061	0.05
0	1461	72.137276887	0.0495
0	1461	72.137276887	0.0495
0	1462	72.169634267061	0.049629429520244
0	1464	72.269634267061	0.05
0	1466	72.369634267061	0.05
0	1468	72.469634267061	0.05
0	1470	72.569634267061	0.05
0	1471	72.593026651	0.05
0	1472	72.669634267061	0.05
0	1474	72.769634267061	0.05
0	1476	72.869634267061	0.05
0	1477	72.886727653	0.05
0	1478	72.969634267061	0.05
0	1480	73.069634267061	0.05
0	1482	73.169634267061	0.05
0	1482	73.182971176	0.05
0	1484	73.269634267061	0.05
0	1486	73.369634267061	0.05
0	1488	73.469634267061	0.0495
0	1488	73.469634267061	0.0495
0	1490	73.569634267061	0.0499
0	1491	73.59681874	0.05
0	1492	73.669634267061	0.05
0	1494	73.769634267061	0.05
0	1496	73.869634267061	0.05
0	1498	73.969634267061	0.05
0	1500	74.069634267061	0.05
0	1500	74.079956617	0.05
0	1502	74.169634267061	0.05
0	1504	74.269634267061	0.05
0	1506	74.369634267061	0.05
0	1508	74.469634267061	0.05
0	1510	74.569634267061	0.05
0	1511	74.653924132	0.05
0	1512	74.669634267061	0.05
0	1514	74.769634267061	0.05
0	1516	74.869634267061	0.0495
0	1516	74.869634267061	0.0495
0	1518	74.969634267061	0.0499
0	1520	75.069634267061	0.05
0	1522	75.169634267061	0.05
0	1523	75.244679512	0.05
0	1524	75.269634267061	0.05
0	1526	75.369634267061	0.05
0	1528	75.469634267061	0.05
0	1530	75.569634267061	0.05
0	1532	75.669634267061	0.05
0	1534	75.769634267061	0.05
0	1534	75.777754441	0.05
0	1536	75.869634267061	0.05
0	1538	75.969634267061	0.05
0	1540	76.069634267061	0.05
0	1542	76.169634267061	0.05
0	1543	76.259338342	0.05
0	1544	76.269634267061	0.0495
0	1544	76.269634267061	0.0495
0	1546	76.369634267061	0.0499
0	1548	76.469634267061	0.05
0	1550	76.569634267061	0.05
0	1552	76.669634267061	0.05
0	1554	76.769634267061	0.05
0	1554	76.779128614	0.05
0	1556	76.869634267061	0.05
0	1558	76.969634267061	0.05
0	1560	77.069634267061	0.05
0	1562	77.169634267061	0.05
0	1564	77.269634267061	0.05
0	1565	77.352035527	0.05
0	1566	77.369634267061	0.05
0	1568	77.469634267061	0.05
0	1570	77.569634267061	0.05
0	1572	77.669634267061	0.05
0	1574	77.769634267061	0.0495
0	1574	77.769634267061	0.0495
0	1575	77.860708699	0.049864297727756
0	1576	77.869634267061	0.0499
0	1578	77.969634267061	0.05
0	1580	78.069634267061	0.05
0	1582	78.169634267061	0.05
0	1584	78.269634267061	0.05
0	1585	78.366201457	0.05
0	1586	78.369634267061	0.05
0	1588	78.469634267061	0.05
0	1590	78.569634267061	0.05
0	1592	78.669634267061	0.05
0	1594	78.769634267061	0.05
0	1596	78.869634267061	0.05
0	1597	78.96246844	0.05
0	1598	78.969634267061	0.05
0	1600	79.069634267061	0.05
0	1602	79.169634267061	0.0495
0	1602	79.169634267061	0.0495
0	1604	79.269634267061	0.0499
0	1606	79.369634267061	0.05
0	1608	79.469634267061	0.05
0	1609	79.56459283	0.05
0	1610	79.569634267061	0.05
0	1612	79.669634267061	0.05
0	1614	79.769634267061	0.05
0	1616	79.869634267061	0.05
0	1618	79.969634267061	0.05
0	1620	80.069634267061	0.05
0	1621	80.152122649	0.05
0	1622	80.169634267061	0.05
0	1624	80.269634267061	0.05
0	1626	80.369634267061	0.05
0	1628	80.469634267061	0.05
0	1630	80.569634267061	0.05
0	1632	80.669634267061	0.0495
0	1632	80.669634267061	0.0495
0	1633	80.755728457	0.049844376759756
0	1634	80.769634267061	0.0499
0	1636	80.869634267061	0.05
0	1638	80.969634267061	0.05
0	1640	81.069634267061	0.05
0	1642	81.169634267061	0.05
0	1644	81.269634267061	0.05
0	1646	81.369634267061	0.05
0	1648	81.469634267061	0.05
0	1649	81.553445917	0.05
0	1650	81.569634267061	0.05
0	1652	81.669634267061	0.05
0	1654	81.769634267061	0.05
0	1656	81.869634267061	0.05
0	1658	81.969634267061	0.05
0	1659	82.007224309	0.05
0	1660	82.069634267061	0.0495
0	1660	82.069634267061	0.0495
0	1662	82.169634267061	0.0499
0	1664	82.269634267061	0.05
0	1666	82.369634267061	0.05
0	1667	82.467326614	0.05
0	1668	82.469634267061	0.05
0	1670	82.569634267061	0.05
0	1672	82.669634267061	0.05
0	1674	82.769634267061	0.05
0	1676	82.869634267061	0.05
0	1677	82.900316185	0.05
0	1678	82.969634267061	0.05
0	1680	83.069634267061	0.05
0	1682	83.169634267061	0.05
0	1683	83.189275858	0.05
0	1684	83.269634267061	0.05
0	1686	83.369634267061	0.05
0	1688	83.469634267061	0.0495
0	1688	83.469634267061	0.0495
0	1690	83.569634267061	0.0499
0	1691	83.66377003	0.05
0	1692	83.669634267061	0.05
0	1694	83.769634267061	0.05
0	1696	83.869634267061	0.05
0	1697	83.963894632	0.05
0	1698	83.969634267061	0.05
0	1700	84.069634267061	0.05
0	1702	84.169634267061	0.05
0	1704	84.269634267061	0.05
0	1706	84.369634267061	0.05
0	1707	84.44913349	0.05
0	1708	84.469634267061	0.05
0	1710	84.569634267061	0.05
0	1712	84.669634267061	0.05
0	1714	84.769634267061	0.05
0	1716	84.869634267061	0.0495
0	1716	84.869634267061	0.0495
0	1717	84.908035837	0.049653606279756
0	1718	84.969634267061	0.0499
0	1720	85.069634267061	0.05
0	1722	85.169634267061	0.05
0	1724	85.269634267061	0.05
0	1725	85.339652506	0.05
0	1726	85.369634267061	0.05
0	1728	85.469634267061	0.05
0	1730	85.569634267061	0.05
0	1732	85.669634267061	0.05
0	1734	85.769634267061	0.05
0	1736	85.869634267061	0.05
0	1737	85.897987363	0.05
0	1738	85.969634267061	0.05
0	1740	86.069634267061	0.05
0	1742	86.169634267061	0.05
0	1744	86.269634267061	0.0495
0	1744	86.269634267061	0.0495
0	1746	86.369634267061	0.0499
0	1748	86.469634267061	0.05
0	1749	86.564219779	0.05
0	1750	86.569634267061	0.05
0	1752	86.669634267061	0.05
0	1754	86.769634267061	0.05
0	1756	86.869634267061	0.05
0	1758	86.969634267061	0.05
0	1760	87.069634267061	0.05
0	1760	87.078110818	0.05
0	1762	87.169634267061	0.05
0	1764	87.269634267061	0.05
0	1767	87.369634267061	0.05
0	1769	87.469634267061	0.05
0	1770	87.552218962	0.05
0	1771	87.569634267061	0.05
0	1773	87.669634267061	0.05
0	1775	87.769634267061	0.05
0	1776	87.822287887	0.05
0	1777	87.869634267061	0.05
0	1779	87.969634267061	0.05
0	1781	88.069634267061	0.05
0	1783	88.169634267061	0.05
0	1785	88.269634267061	0.05
0	1786	88.341031453	0.05
0	1787	88.369634267061	0.05
0	1789	88.469634267061	0.05
0	1791	88.569634267061	0.05
0	1793	88.669634267061	0.05
0	1795	88.769634267061	0.05
0	1797	88.869634267061	0.05
0	1799	88.969634267061	0.05
0	1800	89.058269098	0.05
0	1801	89.069634267061	0.05
0	1803	89.169634267061	0.05
0	1805	89.269634267061	0.05
0	1807	89.369634267061	0.05
0	1809	89.469634267061	0.05
0	1811	89.569634267061	0.05
0	1813	89.669634267061	0.05
0	1814	89.725343512	0.05
0	1815	89.769634267061	0.05
0	1817	89.869634267061	0.05
0	1819	89.969634267061	0.05
0	1821	90.069634267061	0.05
0	1823	90.169634267061	0.05
0	1823	90.173180953	0.05
0	1825	90.269634267061	0.05
0	1827	90.369634267061	0.05
0	1828	90.441088657	0.05
0	1829	90.469634267061	0.05
0	1831	90.569634267061	0.05
0	1832	90.668060917	0.05
0	1833	90.669634267061	0.05
0	1835	90.769634267061	0.05
0	1837	90.869634267061	0.05
0	1838	90.931144381	0.05
0	1839	90.969634267061	0.05
0	1841	91.069634267061	0.05
0	1843	91.169634267061	0.05
0	1844	91.206509191	0.05
0	1845	91.269634267061	0.05
0	1847	91.369634267061	0.05
0	1849	91.469634267061	0.05
0	1851	91.569634267061	0.05
0	1852	91.620107689	0.05
0	1853	91.669634267061	0.05
0	1855	91.769634267061	0.05
0	1856	91.851410308	0.05
0	1857	91.869634267061	0.05
0	1859	91.969634267061	0.05
0	1861	92.069634267061	0.05
0	1862	92.143000261	0.05
0	1863	92.169634267061	0.05
0	1865	92.269634267061	0.05
0	1867	92.369634267061	0.05
0	1869	92.469634267061	0.05
0	1870	92.521457191	0.05
0	1871	92.569634267061	0.05
0	1873	92.669634267061	0.05
0	1875	92.769634267061	0.05
0	1876	92.807658577	0.05
0	1877	92.869634267061	0.05
0	1879	92.969634267061	0.05
0	1881	93.069634267061	0.05
0	1883	93.169634267061	0.05
0	1884	93.257485537	0.05
0	1885	93.269634267061	0.05
0	1887	93.369634267061	0.05
0	1889	93.469634267061	0.05
0	1891	93.569634267061	0.05
0	1893	93.669634267061	0.05
0	1895	93.769634267061	0.05
0	1897	93.869634267061	0.05
0	1898	93.907674199	0.05
0	1899	93.969634267061	0.05
0	1901	94.069634267061	0.05
0	1903	94.169634267061	0.05
0	1905	94.269634267061	0.05
0	1907	94.369634267061	0.05
0	1907	94.389100621	0.05
0	1909	94.469634267061	0.05
0	1911	94.569634267061	0.05
0	1913	94.669634267061	0.05
0	1915	94.769634267061	0.05
0	1917	94.869634267061	0.05
0	1918	94.964547733	0.05
0	1919	94.969634267061	0.05
0	1921	95.069634267061	0.05
0	1923	95.169634267061	0.05
0	1925	95.269634267061	0.05
0	1927	95.369634267061	0.05
0	1929	95.450196977065	0.05
0	1930	95.49066931	0.05
0	1931	95.550196977065	0.05
0	1933	95.650196977065	0.05
0	1935	95.750196977065	0.05
0	1937	95.850196977065	0.05
0	1939	95.950196977065	0.05
0	1939	95.968284478	0.05
0	1941	96.050196977065	0.05
0	1943	96.150196977065	0.05
0	1945	96.250196977065	0.05
0	1947	96.350196977065	0.05
0	1949	96.434457459934	0.05
0	1949	96.450100693	0.05
0	1950	96.450196977065	0.05
0	1952	96.550196977065	0.05
0	1954	96.650196977065	0.05
0	1956	96.750196977065	0.05
0	1958	96.850196977065	0.05
0	1958	96.874621855	0.05
0	1960	96.950196977065	0.05
0	1962	97.050196977065	0.05
0	1964	97.150196977065	0.05
0	1966	97.250196977065	0.0495
0	1966	97.250196977065	0.0495
0	1966	97.287372322	0.0495
0	1968	97.350196977065	0.0495
0	1970	97.450196977065	0.0495
0	1972	97.550196977065	0.0495
0	1972	97.559384911	0.0495
0	1974	97.650196977065	0.0495
0	1976	97.750196977065	0.0495
0	1978	97.850196977065	0.0495
0	1980	97.950196977065	0.0495
0	1981	98.032921642	0.0495
0	1982	98.050196977065	0.0495
0	1984	98.150196977065	0.0495
0	1986	98.250196977065	0.0495
0	1987	98.316213256	0.0495
0	1988	98.350196977065	0.0495
0	1990	98.450196977065	0.0495
0	1992	98.550196977065	0.049005
0	1992	98.550196977065	0.049005
0	1994	98.650196977065	0.049005
0	1995	98.707984288	0.049005
0	1996	98.750196977065	0.049005
0	1998	98.850196977065	0.049005
0	2000	98.950196977065	0.049005
0	2002	99.050196977065	0.049005
0	2004	99.150196977065	0.049005
0	2004	99.154555279	0.049005
0	2006	99.250196977065	0.049005
0	2008	99.350196977065	0.049005
0	2010	99.450196977065	0.049005
0	2012	99.550196977065	0.049005
0	2013	99.596099515	0.049005
0	2014	99.650196977065	0.049005
0	2016	99.750196977065	0.049005
0	2018	99.850196977065	0.049005
0	2018	99.879748348	0.049005
0	2020	99.950196977065	0.049005
0	2022	100.050196977065	0.049005
0	2023	100.135461061	0.049005
0	2024	100.150196977065	0.049005
0	2026	100.250196977065	0.049005
0	2028	100.350196977065	0.049005
0	2030	100.450196977065	0.049005
0	2032	100.550196977065	0.049005
0	2033	100.603041304	0.049005
0	2034	100.650196977065	0.049005
0	2036	100.750196977065	0.049005
0	2038	100.850196977065	0.049005
0	2040	100.950196977065	0.049005
0	2041	101.004769432	0.049005
0	2042	101.050196977065	0.049005
0	2044	101.150196977065	0.049005
0	2046	101.250196977065	0.04851495
0	2046	101.250196977065	0.04851495
0	2048	101.350196977065	0.04851495
0	2049	101.420739295	0.04851495
0	2050	101.450196977065	0.04851495
0	2052	101.550196977065	0.04851495
0	2054	101.650196977065	0.04851495
0	2055	101.718740197	0.04851495
0	2056	101.750196977065	0.04851495
0	2058	101.850196977065	0.04851495
0	2060	101.906603183209	0.04851495
0	2062	102.006603183209	0.04851495
0	2062	102.0126646	0.04851495
0	2064	102.106603183209	0.04851495
0	2066	102.206603183209	0.04851495
0	2066	102.283834825	0.04851495
0	2068	102.306603183209	0.04851495
0	2070	102.406603183209	0.04851495
0	2072	102.506603183209	0.0480298005
0	2072	102.506603183209	0.0480298005
0	2074	102.606603183209	0.0480298005
0	2076	102.706603183209	0.0480298005
0	2076	102.717984778	0.0480298005
0	2078	102.806603183209	0.0480298005
0	2080	102.906603183209	0.0480298005
0	2082	103.006603183209	0.0480298005
0	2082	103.017386614	0.0480298005
0	2084	103.106603183209	0.0480298005
0	2086	103.206603183209	0.0480298005
0	2088	103.306603183209	0.0480298005
0	2088	103.314882922	0.0480298005
0	2090	103.406603183209	0.0480298005
0	2092	103.506603183209	0.0480298005
0	2093	103.591652104	0.0480298005
0	2094	103.606603183209	0.0480298005
0	2096	103.706603183209	0.0480298005
0	2098	103.806603183209	0.047549502495
0	2098	103.806603183209	0.047549502495
0	2100	103.906603183209	0.047549502495
0	2102	104.006603183209	0.047549502495
0	2102	104.029610185	0.047549502495
0	2104	104.106603183209	0.047549502495
0	2106	104.206603183209	0.047549502495
0	2108	104.306603183209	0.047549502495
0	2110	104.406603183209	0.047549502495
0	2110	104.451117598	0.047549502495
0	2112	104.506603183209	0.047549502495
0	2114	104.606603183209	0.047549502495
0	2116	104.706603183209	0.047549502495
0	2118	104.806603183209	0.047549502495
0	2119	104.893231387	0.047549502495
0	2120	104.906603183209	0.047549502495
0	2122	105.006603183209	0.047549502495
0	2124	105.106603183209	0.047549502495
0	2126	105.206603183209	0.04707400747005
0	2126	105.206603183209	0.04707400747005
0	2128	105.306603183209	0.04707400747005
0	2128	105.332132011	0.04707400747005
0	2130	105.406603183209	0.04707400747005
0	2132	105.506603183209	0.04707400747005
0	2134	105.606603183209	0.04707400747005
0	2136	105.706603183209	0.04707400747005
0	2138	105.806603183209	0.04707400747005
0	2138	105.834936757	0.04707400747005
0	2140	105.906603183209	0.04707400747005
0	2142	106.006603183209	0.04707400747005
0	2144	106.106603183209	0.04707400747005
0	2146	106.206603183209	0.04707400747005
0	2147	106.293878191	0.04707400747005
0	2148	106.306603183209	0.04707400747005
0	2150	106.406603183209	0.04707400747005
0	2152	106.506603183209	0.04707400747005
0	2154	106.606603183209	0.04660326739535
0	2154	106.606603183209	0.04660326739535
0	2156	106.706603183209	0.04660326739535
0	2156	106.751460241	0.04660326739535
0	2158	106.806603183209	0.04660326739535
0	2160	106.906603183209	0.04660326739535
0	2162	107.006603183209	0.04660326739535
0	2162	107.045736523	0.04660326739535
0	2164	107.106603183209	0.04660326739535
0	2166	107.206603183209	0.04660326739535
0	2168	107.306603183209	0.04660326739535
0	2170	107.406603183209	0.04660326739535
0	2172	107.506603183209	0.04660326739535
0	2172	107.518661326	0.04660326739535
0	2174	107.606603183209	0.04660326739535
0	2176	107.706603183209	0.04660326739535
0	2178	107.806603183209	0.04660326739535
0	2180	107.906603183209	0.04660326739535
0	2180	107.983440211	0.04660326739535
0	2182	108.006603183209	0.04660326739535
0	2184	108.106603183209	0.04660326739535
0	2186	108.206603183209	0.04660326739535
0	2188	108.306603183209	0.04660326739535
0	2190	108.406603183209	0.04660326739535
0	2190	108.416795995	0.04660326739535
0	2192	108.506603183209	0.04660326739535
0	2194	108.606603183209	0.04660326739535
0	2196	108.706603183209	0.04660326739535
0	2197	108.709353423946	0.04660326739535
0	2199	108.809353423946	0.04660326739535
0	2199	108.882633583	0.04660326739535
0	2201	108.909353423946	0.04660326739535
0	2203	109.009353423946	0.04660326739535
0	2205	109.109353423946	0.04660326739535
0	2207	109.209353423946	0.04660326739535
0	2209	109.309353423946	0.04660326739535
0	2209	109.368722797	0.046137234721396
0	2209	109.368722797	0.046137234721396
0	2211	109.409353423946	0.046137234721396
0	2213	109.509353423946	0.046137234721396
0	2215	109.609353423946	0.046137234721396
0	2217	109.709353423946	0.046137234721396
0	2219	109.809353423946	0.046137234721396
0	2219	109.852823635	0.046137234721396
0	2221	109.909353423946	0.046137234721396
0	2223	110.009353423946	0.046137234721396
0	2225	110.109353423946	0.046137234721396
0	2227	110.209353423946	0.046137234721396
0	2229	110.309353423946	0.046137234721396
0	2229	110.353661893	0.046137234721396
0	2231	110.409353423946	0.046137234721396
0	2233	110.509353423946	0.046137234721396
0	2235	110.609353423946	0.046137234721396
0	2237	110.709353423946	0.046137234721396
0	2239	110.809353423946	0.046137234721396
0	2239	110.816451232	0.046137234721396
0	2241	110.909353423946	0.046137234721396
0	2243	111.009353423946	0.046137234721396
0	2245	111.109353423946	0.046137234721396
0	2247	111.209353423946	0.046137234721396
0	2249	111.309353423946	0.046137234721396
0	2250	111.393979726	0.046137234721396
0	2251	111.409353423946	0.046137234721396
0	2253	111.509353423946	0.046137234721396
0	2255	111.609353423946	0.046137234721396
0	2257	111.709353423946	0.046137234721396
0	2259	111.809353423946	0.046137234721396
0	2261	111.909353423946	0.046137234721396
0	2263	112.009353423946	0.046137234721396
0	2264	112.108698175	0.046137234721396
0	2265	112.109353423946	0.046137234721396
0	2267	112.209353423946	0.046137234721396
0	2269	112.309353423946	0.046137234721396
0	2271	112.409353423946	0.046137234721396
0	2273	112.509353423946	0.046137234721396
0	2275	112.609353423946	0.046137234721396
0	2275	112.669527538	0.046137234721396
0	2277	112.709353423946	0.046137234721396
0	2279	112.809353423946	0.046137234721396
0	2282	112.909353423946	0.046137234721396
0	2285	113.009353423946	0.046137234721396
0	2288	113.109353423946	0.046137234721396
0	2288	113.124458278	0.046137234721396
0	2291	113.209353423946	0.046137234721396
0	2293	113.309353423946	0.046137234721396
0	2296	113.409353423946	0.045675862374182
0	2296	113.409353423946	0.045675862374182
0	2299	113.509353423946	0.045675862374182
0	2302	113.609353423946	0.045675862374182
0	2303	113.697940345	0.045675862374182
0	2305	113.709353423946	0.045675862374182
0	2307	113.809353423946	0.045675862374182
0	2310	113.909353423946	0.045675862374182
0	2312	113.997445636	0.045675862374182
0	2313	114.009353423946	0.045675862374182
0	2316	114.109353423946	0.045675862374182
0	2319	114.209353423946	0.045675862374182
0	2321	114.309353423946	0.045675862374182
0	2324	114.409353423946	0.045675862374182
0	2325	114.488624947	0.04521910375044
0	2325	114.488624947	0.04521910375044
0	2327	114.509353423946	0.04521910375044
0	2330	114.609353423946	0.04521910375044
0	2332	114.709353423946	0.04521910375044
0	2334	114.809353423946	0.04521910375044
0	2336	114.909353423946	0.04521910375044
0	2336	114.948941455	0.04521910375044
0	2338	115.009353423946	0.04521910375044
0	2340	115.109353423946	0.04521910375044
0	2342	115.209353423946	0.04521910375044
0	2344	115.309353423946	0.04521910375044
0	2346	115.409353423946	0.04521910375044
0	2348	115.509353423946	0.04521910375044
0	2348	115.548778009	0.04521910375044
0	2350	115.609353423946	0.04521910375044
0	2352	115.709353423946	0.04521910375044
0	2354	115.809353423946	0.044766912712936
0	2354	115.809353423946	0.044766912712936
0	2356	115.909353423946	0.044766912712936
0	2356	115.981693168	0.044766912712936
0	2358	116.009353423946	0.044766912712936
0	2360	116.109353423946	0.044766912712936
0	2362	116.209353423946	0.044766912712936
0	2362	116.263489543	0.044766912712936
0	2364	116.309353423946	0.044766912712936
0	2366	116.409353423946	0.044766912712936
0	2368	116.509353423946	0.044766912712936
0	2370	116.609353423946	0.044766912712936
0	2371	116.703600625	0.044766912712936
0	2372	116.709353423946	0.044766912712936
0	2374	116.809353423946	0.044766912712936
0	2376	116.909353423946	0.044766912712936
0	2376	116.985116209	0.044766912712936
0	2378	117.009353423946	0.044766912712936
0	2380	117.109353423946	0.044319243585806
0	2380	117.109353423946	0.044319243585806
0	2382	117.209353423946	0.044319243585806
0	2384	117.309353423946	0.044319243585806
0	2385	117.397391269	0.044319243585806
0	2386	117.399925061716	0.044319243585806
0	2387	117.409353423946	0.044356957034726
0	2388	117.445114165264	0.0445
0	2390	117.509353423946	0.044756957034728
0	2391	117.570114165264	0.045
0	2393	117.609353423946	0.045156957034728
0	2395	117.695114165264	0.0455
0	2396	117.709353423946	0.045556957034728
0	2398	117.809353423946	0.045956957034728
0	2398	117.814119904	0.045976022954944
0	2399	117.820114165264	0.046
0	2401	117.909353423946	0.046356957034728
0	2402	117.936221597358	0.046464429728376
0	2403	117.945114165264	0.0465
0	2405	118.036221597358	0.046864429728376
0	2406	118.070114165264	0.047
0	2408	118.136221597358	0.047264429728376
0	2410	118.195114165264	0.047025
0	2410	118.195114165264	0.047025
0	2410	118.229774149	0.047163639934944
0	2411	118.236221597358	0.047189429728376
0	2413	118.313864165264	0.0475
0	2414	118.336221597358	0.047589429728376
0	2416	118.436221597358	0.047989429728376
0	2417	118.438864165264	0.048
0	2419	118.536221597358	0.048389429728376
0	2420	118.563864165264	0.0485
0	2421	118.629187786	0.048761294482944
0	2422	118.636221597358	0.048789429728376
0	2423	118.688864165264	0.049
0	2425	118.736221597358	0.049189429728376
0	2427	118.813864165264	0.0495
0	2428	118.836221597358	0.049589429728376
0	2429	118.907929747	0.049876262326944
0	2430	118.936221597358	0.049989429728376
0	2431	118.938864165264	0.05
0	2433	119.036221597358	0.05
0	2435	119.136221597358	0.05
0	2437	119.236221597358	0.05
0	2438	119.32961476	0.05
0	2439	119.336221597358	0.05
0	2441	119.436221597358	0.05
0	2443	119.536221597358	0.05
0	2445	119.636221597358	0.05
0	2447	119.736221597358	0.05
0	2447	119.785719808	0.05
0	2449	119.836221597358	0.05
0	2451	119.936221597358	0.05
0	2453	120.036221597358	0.05
0	2455	120.136221597358	0.05
0	2456	120.224242939	0.05
0	2457	120.236221597358	0.05
0	2459	120.336221597358	0.05
0	2461	120.436221597358	0.05
0	2463	120.536221597358	0.05
0	2465	120.636221597358	0.05
0	2466	120.713697055	0.05
0	2467	120.736221597358	0.05
0	2469	120.836221597358	0.05
0	2471	120.936221597358	0.05
0	2473	121.036221597358	0.05
0	2475	121.136221597358	0.05
0	2475	121.147251058	0.05
0	2477	121.236221597358	0.05
0	2479	121.336221597358	0.05
0	2481	121.436221597358	0.05
0	2483	121.536221597358	0.05
0	2484	121.598027695	0.05
0	2485	121.636221597358	0.05
0	2487	121.736221597358	0.05
0	2489	121.836221597358	0.05
0	2491	121.936221597358	0.05
0	2493	122.036221597358	0.05
0	2493	122.04339544	0.0495
0	2493	122.04339544	0.0495
0	2495	122.136221597358	0.049871304629432
0	2497	122.236221597358	0.05
0	2498	122.307193117	0.05
0	2499	122.336221597358	0.05
0	2501	122.436221597358	0.05
0	2503	122.536221597358	0.05
0	2505	122.636221597358	0.05
0	2506	122.700873016	0.05
0	2507	122.736221597358	0.05
0	2509	122.836221597358	0.05
0	2511	122.936221597358	0.05
0	2512	122.967996112949	0.05
0	2514	123.067996112949	0.05
0	2515	123.165701953	0.05
0	2516	123.167996112949	0.05
0	2518	123.267996112949	0.05
0	2520	123.367996112949	0.0495
0	2520	123.367996112949	0.0495
0	2522	123.467996112949	0.0499
0	2524	123.567996112949	0.05
0	2525	123.65516635	0.05
0	2526	123.667996112949	0.05
0	2528	123.767996112949	0.05
0	2530	123.867996112949	0.05
0	2532	123.967996112949	0.05
0	2533	124.063310332	0.05
0	2534	124.067996112949	0.05
0	2536	124.167996112949	0.05
0	2538	124.267996112949	0.05
0	2539	124.344580861	0.05
0	2540	124.367996112949	0.05
0	2542	124.467996112949	0.05
0	2544	124.567996112949	0.05
0	2546	124.667996112949	0.05
0	2548	124.767996112949	0.0495
0	2548	124.767996112949	0.0495
0	2549	124.814357926	0.049685447252204
0	2550	124.867996112949	0.0499
0	2552	124.967996112949	0.05
0	2554	125.067996112949	0.05
0	2556	125.167996112949	0.05
0	2557	125.236828495	0.05
0	2558	125.267996112949	0.05
0	2560	125.367996112949	0.05
0	2562	125.467996112949	0.05
0	2563	125.530924999	0.05
0	2564	125.567996112949	0.05
0	2566	125.667996112949	0.05
0	2568	125.767996112949	0.05
0	2570	125.819575237	0.05
0	2571	125.867996112949	0.05
0	2573	125.967996112949	0.05
0	2575	126.067996112949	0.05
0	2576	126.106507582	0.05
0	2577	126.167996112949	0.05
0	2579	126.267996112949	0.05
0	2581	126.367996112949	0.05
0	2583	126.467996112949	0.05
0	2585	126.567996112949	0.05
0	2586	126.619994125	0.05
0	2587	126.667996112949	0.05
0	2589	126.767996112949	0.05
0	2591	126.867996112949	0.05
0	2593	126.967996112949	0.05
0	2595	127.067996112949	0.05
0	2597	127.167996112949	0.05
0	2598	127.227017092	0.05
0	2599	127.267996112949	0.05
0	2601	127.367996112949	0.05
0	2603	127.467996112949	0.05
0	2605	127.567996112949	0.05
0	2607	127.667996112949	0.05
0	2608	127.729379257	0.05
0	2609	127.767996112949	0.05
0	2611	127.867996112949	0.05
0	2613	127.967996112949	0.05
0	2615	128.067996112949	0.05
0	2616	128.1642313	0.05
0	2617	128.167996112949	0.05
0	2619	128.267996112949	0.05
0	2621	128.367996112949	0.05
0	2623	128.467996112949	0.05
0	2624	128.553302071	0.05
0	2625	128.567996112949	0.05
0	2627	128.667996112949	0.05
0	2629	128.767996112949	0.05
0	2630	128.804952382	0.05
0	2631	128.867996112949	0.05
0	2633	128.967996112949	0.05
0	2635	129.067996112949	0.05
0	2635	129.082117567	0.05
0	2637	129.167996112949	0.05
0	2639	129.239459344327	0.05
0	2642	129.339459344327	0.05
0	2644	129.439459344327	0.05
0	2646	129.539459344327	0.05
0	2647	129.638049076	0.05
0	2648	129.639459344327	0.05
0	2650	129.739459344327	0.05
0	2652	129.839459344327	0.05
0	2654	129.939459344327	0.05
0	2656	130.039459344327	0.05
0	2657	130.098328714	0.05
0	2658	130.139459344327	0.05
0	2660	130.239459344327	0.05
0	2662	130.339459344327	0.05
0	2664	130.439459344327	0.05
0	2666	130.539459344327	0.05
0	2668	130.639459344327	0.05
0	2669	130.699446907	0.05
0	2670	130.739459344327	0.05
0	2672	130.839459344327	0.05
0	2674	130.939459344327	0.05
0	2676	131.039459344327	0.05
0	2678	131.139459344327	0.05
0	2678	131.150331271	0.05
0	2680	131.239459344327	0.05
0	2682	131.339459344327	0.05
0	2684	131.439459344327	0.05
0	2686	131.539459344327	0.05
0	2686	131.582690518	0.0495
0	2686	131.582690518	0.0495
0	2688	131.639459344327	0.049727075305308
0	2690	131.739459344327	0.05
0	2691	131.834316061	0.05
0	2692	131.839459344327	0.05
0	2694	131.939459344327	0.05
0	2696	132.039459344327	0.05
0	2697	132.101557663	0.05
0	2698	132.139459344327	0.05
0	2700	132.239459344327	0.05
0	2702	132.339459344327	0.05
0	2704	132.439459344327	0.05
0	2704	132.487233202	0.05
0	2706	132.539459344327	0.05
0	2708	132.639459344327	0.05
0	2710	132.739459344327	0.05
0	2712	132.839459344327	0.05
0	2714	132.939459344327	0.05
0	2715	132.946184811519	0.05
0	2715	132.962171254	0.05
0	2717	133.039459344327	0.05
0	2719	133.139459344327	0.05
0	2720	133.199217088	0.05
0	2721	133.239459344327	0.05
0	2723	133.339459344327	0.05
0	2725	133.439459344327	0.05
0	2726	133.495027501	0.05
0	2727	133.539459344327	0.05
0	2728	133.555394377688	0.05
0	2730	133.655394377688	0.05
0	2732	133.755394377688	0.05
0	2734	133.855394377688	0.05
0	2735	133.940457463	0.05
0	2736	133.955394377688	0.05
0	2738	134.000777413637	0.05
0	2739	134.055394377688	0.0495
0	2739	134.055394377688	0.0495
0	2741	134.155394377688	0.0499
0	2742	134.228596867	0.05
0	2743	134.255394377688	0.05
0	2745	134.355394377688	0.05
0	2747	134.455394377688	0.05
0	2749	134.555394377688	0.05
0	2751	134.655394377688	0.05
0	2751	134.664581578	0.05
0	2753	134.755394377688	0.05
0	2755	134.855394377688	0.05
0	2757	134.955394377688	0.05
0	2757	134.959209751	0.05
0	2759	135.055394377688	0.05
0	2761	135.155394377688	0.05
0	2763	135.255394377688	0.05
0	2765	135.355394377688	0.05
0	2766	135.439529182	0.0495
0	2766	135.439529182	0.0495
0	2767	135.455394377688	0.049563460782752
0	2769	135.555394377688	0.049963460782752
0	2771	135.655394377688	0.05
0	2772	135.72563965	0.05
0	2773	135.755394377688	0.05
0	2775	135.855394377688	0.05
0	2777	135.955394377688	0.05
0	2779	136.055394377688	0.05
0	2781	136.155394377688	0.05
0	2782	136.226990824	0.05
0	2783	136.255394377688	0.05
0	2785	136.355394377688	0.05
0	2787	136.455394377688	0.05
0	2789	136.555394377688	0.05
0	2791	136.655394377688	0.05
0	2792	136.709329234	0.05
0	2793	136.755394377688	0.0495
0	2793	136.755394377688	0.0495
0	2795	136.855394377688	0.0499
0	2797	136.955394377688	0.05
0	2798	137.008209568	0.05
0	2799	137.055394377688	0.05
0	2801	137.155394377688	0.05
0	2803	137.255394377688	0.05
0	2805	137.355394377688	0.05
0	2807	137.455394377688	0.05
0	2808	137.544431077	0.05
0	2809	137.555394377688	0.05
0	2811	137.655394377688	0.05
0	2813	137.755394377688	0.05
0	2815	137.855394377688	0.05
0	2816	137.9434552	0.05
0	2817	137.955394377688	0.05
0	2819	138.055394377688	0.05
0	2821	138.155394377688	0.0495
0	2821	138.155394377688	0.0495
0	2823	138.255394377688	0.0499
0	2825	138.355394377688	0.05
0	2826	138.392247571	0.05
0	2827	138.455394377688	0.05
0	2829	138.555394377688	0.05
0	2830	138.641452474	0.05
0	2831	138.655394377688	0.05
0	2833	138.755394377688	0.05
0	2835	138.819517253326	0.05
0	2837	138.919517253326	0.05
0	2839	139.019517253326	0.05
0	2841	139.119517253326	0.05
0	2841	139.164837433	0.05
0	2843	139.219517253326	0.05
0	2845	139.319517253326	0.05
0	2847	139.419517253326	0.05
0	2849	139.519517253326	0.0495
0	2849	139.519517253326	0.0495
0	2849	139.559689414	0.049660688642696
0	2851	139.619517253326	0.0499
0	2853	139.719517253326	0.05
0	2855	139.819517253326	0.05
0	2857	139.919517253326	0.05
0	2858	139.996868377	0.05
0	2859	140.019517253326	0.05
0	2861	140.119517253326	0.05
0	2863	140.219517253326	0.05
0	2865	140.319517253326	0.05
0	2867	140.419517253326	0.05
0	2868	140.516291722	0.05
0	2869	140.519517253326	0.05
0	2871	140.619517253326	0.05
0	2873	140.719517253326	0.05
0	2875	140.819517253326	0.05
0	2877	140.919517253326	0.0495
0	2877	140.919517253326	0.0495
0	2878	141.015579322	0.049884248274696
0	2879	141.019517253326	0.0499
0	2881	141.119517253326	0.05
0	2883	141.219517253326	0.05
0	2885	141.319517253326	0.05
0	2887	141.419517253326	0.05
0	2889	141.519517253326	0.05
0	2889	141.552760507	0.05
0	2891	141.619517253326	0.05
0	2893	141.719517253326	0.05
0	2895	141.819517253326	0.05
0	2895	141.836491195	0.05
0	2897	141.919517253326	0.05
0	2899	142.019517253326	0.05
0	2901	142.119517253326	0.05
0	2903	142.219517253326	0.05
0	2903	142.259614174	0.05
0	2905	142.319517253326	0.05
0	2907	142.419517253326	0.05
0	2909	142.519517253326	0.05
0	2911	142.619517253326	0.05
0	2913	142.719517253326	0.05
0	2913	142.722211009	0.05
0	2915	142.819517253326	0.05
0	2917	142.919517253326	0.05
0	2919	143.019517253326	0.05
0	2921	143.119517253326	0.05
0	2922	143.154136309	0.05
0	2923	143.219517253326	0.05
0	2925	143.319517253326	0.05
0	2927	143.419517253326	0.05
0	2929	143.519517253326	0.05
0	2930	143.615790808	0.05
0	2931	143.619517253326	0.0495
0	2931	143.619517253326	0.0495
0	2933	143.719517253326	0.0499
0	2935	143.819517253326	0.05
0	2937	143.919517253326	0.05
0	2939	144.019517253326	0.05
0	2940	144.079137559	0.05
0	2941	144.119517253326	0.05
0	2943	144.219517253326	0.05
0	2945	144.319517253326	0.05
0	2947	144.419517253326	0.05
0	2949	144.519517253326	0.05
0	2951	144.619517253326	0.05
0	2951	144.642021817	0.05
0	2953	144.719517253326	0.05
0	2955	144.819517253326	0.05
0	2957	144.919517253326	0.05
0	2959	145.019517253326	0.05
0	2960	145.106392981	0.0495
0	2960	145.106392981	0.0495
0	2961	145.119517253326	0.049552497089304
0	2963	145.219517253326	0.049952497089304
0	2965	145.319517253326	0.05
0	2966	145.404075772	0.05
0	2967	145.419517253326	0.05
0	2969	145.458542518133	0.05
0	2971	145.558542518133	0.05
0	2973	145.658542518133	0.05
0	2975	145.758542518133	0.05
0	2975	145.809775273	0.05
0	2977	145.858542518133	0.05
0	2979	145.958542518133	0.05
0	2981	146.058542518133	0.05
0	2983	146.158542518133	0.05
0	2985	146.258542518133	0.05
0	2985	146.343415345	0.05
0	2987	146.358542518133	0.0495
0	2987	146.358542518133	0.0495
0	2989	146.458542518133	0.0499
0	2991	146.558542518133	0.05
0	2993	146.658542518133	0.05
0	2995	146.758542518133	0.05
0	2995	146.810639599	0.05
0	2997	146.858542518133	0.05
0	2999	146.958542518133	0.05
0	3001	147.058542518133	0.05
0	3001	147.085313707	0.05
0	3003	147.158542518133	0.05
0	3005	147.258542518133	0.05
0	3007	147.358542518133	0.05
0	3009	147.458542518133	0.05
0	3009	147.527617639	0.05
0	3011	147.558542518133	0.05
0	3013	147.658542518133	0.05
0	3015	147.758542518133	0.0495
0	3015	147.758542518133	0.0495
0	3015	147.820580101	0.049748150331468
0	3017	147.858542518133	0.0499
0	3019	147.958542518133	0.05
0	3021	148.058542518133	0.05
0	3023	148.158542518133	0.05
0	3025	148.258542518133	0.05
0	3025	148.297215811	0.05
0	3027	148.358542518133	0.05
0	3029	148.458542518133	0.05
0	3031	148.558542518133	0.05
0	3033	148.658542518133	0.05
0	3035	148.758542518133	0.05
0	3035	148.831604503	0.05
0	3037	148.858542518133	0.05
0	3039	148.958542518133	0.05
0	3041	149.058542518133	0.05
0	3043	149.158542518133	0.0495
0	3043	149.158542518133	0.0495
0	3045	149.258542518133	0.0499
0	3045	149.26877278	0.049940921047468
0	3047	149.358542518133	0.05
0	3049	149.458542518133	0.05
0	3051	149.558542518133	0.05
0	3053	149.658542518133	0.05
0	3053	149.722406041	0.05
0	3055	149.758542518133	0.05
0	3057	149.858542518133	0.05
0	3059	149.958542518133	0.05
0	3061	150.058542518133	0.05
0	3063	150.158542518133	0.05
0	3063	150.188212165	0.05
0	3065	150.258542518133	0.05
0	3067	150.358542518133	0.05
0	3069	150.458542518133	0.05
0	3071	150.558542518133	0.0495
0	3071	150.558542518133	0.0495
0	3071	150.641836156	0.049833174551468
0	3073	150.658542518133	0.0499
0	3075	150.758542518133	0.05
0	3077	150.858542518133	0.05
0	3079	150.958542518133	0.05
0	3081	151.058542518133	0.05
0	3083	151.158542518133	0.05
0	3084	151.253508475	0.05
0	3085	151.258542518133	0.05
0	3087	151.358542518133	0.05
0	3089	151.458542518133	0.05
0	3090	151.546237549	0.05
0	3091	151.558542518133	0.05
0	3093	151.658542518133	0.05
0	3095	151.758542518133	0.05
0	3097	151.858542518133	0.05
0	3099	151.958542518133	0.0495
0	3099	151.958542518133	0.0495
0	3101	152.058542518133	0.0499
0	3101	152.106455434	0.05
0	3103	152.158542518133	0.05
0	3105	152.258542518133	0.05
0	3107	152.358542518133	0.05
0	3109	152.458542518133	0.05
0	3111	152.558542518133	0.05
0	3113	152.658542518133	0.05
0	3113	152.718417238	0.05
0	3115	152.758542518133	0.05
0	3117	152.858542518133	0.05
0	3119	152.958542518133	0.05
0	3122	153.058542518133	0.05
0	3125	153.158542518133	0.05
0	3126	153.224637397	0.05
0	3128	153.258542518133	0.05
0	3132	153.358542518133	0.05
0	3134	153.458542518133	0.05
0	3136	153.558542518133	0.05
0	3138	153.658542518133	0.05
0	3140	153.758542518133	0.05
0	3142	153.858542518133	0.05
0	3142	153.932332684	0.05
0	3144	153.958542518133	0.05
0	3146	154.058542518133	0.05
0	3147	154.113769635219	0.05
0	3149	154.213769635219	0.05
0	3151	154.313769635219	0.05
0	3153	154.413769635219	0.05
0	3154	154.47622885	0.05
0	3155	154.513769635219	0.05
0	3157	154.613769635219	0.0495
0	3157	154.613769635219	0.0495
0	3159	154.713769635219	0.0499
0	3161	154.813769635219	0.05
0	3163	154.913769635219	0.05
0	3164	154.982545159	0.05
0	3165	155.013769635219	0.05
0	3167	155.113769635219	0.05
0	3169	155.213769635219	0.05
0	3171	155.313769635219	0.05
0	3173	155.413769635219	0.05
0	3175	155.513769635219	0.05
0	3176	155.597955826	0.05
0	3177	155.613769635219	0.05
0	3179	155.713769635219	0.05
0	3181	155.813769635219	0.05
0	3183	155.913769635219	0.05
0	3185	156.013769635219	0.05
0	3187	156.113769635219	0.0495
0	3187	156.113769635219	0.0495
0	3189	156.213769635219	0.0499
0	3190	156.268805848	0.05
0	3191	156.313769635219	0.05
0	3193	156.413769635219	0.05
0	3195	156.513769635219	0.05
0	3197	156.613769635219	0.05
0	3199	156.713769635219	0.05
0	3201	156.813769635219	0.05
0	3201	156.815978938	0.05
0	3203	156.913769635219	0.05
0	3205	157.013769635219	0.05
0	3207	157.113769635219	0.05
0	3209	157.213769635219	0.05
0	3211	157.313769635219	0.05
0	3211	157.317038392	0.05
0	3213	157.413769635219	0.05
0	3215	157.513769635219	0.0495
0	3215	157.513769635219	0.0495
0	3217	157.613769635219	0.0499
0	3219	157.713769635219	0.05
0	3219	157.73656132	0.05
0	3221	157.813769635219	0.05
0	3223	157.913769635219	0.05
0	3225	158.013769635219	0.05
0	3225	158.027182972	0.05
0	3227	158.113769635219	0.05
0	3229	158.213769635219	0.05
0	3231	158.313769635219	0.05
0	3233	158.413769635219	0.05
0	3234	158.459707672	0.05
0	3235	158.513769635219	0.05
0	3237	158.613769635219	0.05
0	3239	158.713769635219	0.05
0	3241	158.813769635219	0.05
0	3243	158.913769635219	0.0495
0	3243	158.913769635219	0.0495
0	3243	158.921081578	0.049529247771124
0	3245	159.013769635219	0.0499
0	3247	159.113769635219	0.05
0	3249	159.213769635219	0.05
0	3251	159.313769635219	0.05
0	3252	159.396076984	0.05
0	3253	159.413769635219	0.05
0	3255	159.513769635219	0.05
0	3257	159.613769635219	0.05
0	3259	159.713769635219	0.05
0	3261	159.813769635219	0.05
0	3261	159.829662508	0.05
0	3263	159.913769635219	0.05
0	3265	160.013769635219	0.05
0	3267	160.113769635219	0.05
0	3269	160.195390006634	0.05
0	3271	160.295390006634	0.0495
0	3271	160.295390006634	0.0495
0	3272	160.393513744	0.049892494949464
0	3273	160.395390006634	0.0499
0	3275	160.495390006634	0.05
0	3277	160.595390006634	0.05
0	3279	160.695390006634	0.05
0	3281	160.795390006634	0.05
0	3282	160.869445936	0.05
0	3283	160.895390006634	0.05
0	3285	160.995390006634	0.05
0	3287	161.095390006634	0.05
0	3289	161.195390006634	0.05
0	3291	161.295390006634	0.05
0	3293	161.395390006634	0.05
0	3293	161.400962068	0.05
0	3295	161.495390006634	0.05
0	3297	161.595390006634	0.05
0	3299	161.695390006634	0.0495
0	3299	161.695390006634	0.0495
0	3301	161.795390006634	0.0499
0	3301	161.837147788	0.05
0	3303	161.895390006634	0.05
0	3305	161.995390006634	0.05
0	3307	162.095390006634	0.05
0	3307	162.121449136	0.05
0	3309	162.195390006634	0.05
0	3311	162.295390006634	0.05
0	3313	162.395390006634	0.05
0	3315	162.495390006634	0.05
0	3317	162.595390006634	0.05
0	3317	162.59798803	0.05
0	3319	162.695390006634	0.05
0	3321	162.795390006634	0.05
0	3322	162.849882535	0.05
0	3323	162.895390006634	0.05
0	3325	162.995390006634	0.0495
0	3325	162.995390006634	0.0495
0	3327	163.095390006634	0.0499
0	3329	163.195390006634	0.05
0	3331	163.295390006634	0.05
0	3332	163.366932394	0.05
0	3333	163.395390006634	0.05
0	3335	163.495390006634	0.05
0	3337	163.595390006634	0.05
0	3339	163.695390006634	0.05
0	3341	163.795390006634	0.05
0	3343	163.895390006634	0.05
0	3343	163.923806662	0.05
0	3345	163.995390006634	0.05
0	3346	164.011944123205	0.05
0	3349	164.111944123205	0.05
0	3351	164.211944123205	0.05
0	3353	164.311944123205	0.05
0	3355	164.411944123205	0.05
0	3356	164.501014525	0.05
0	3357	164.511944123205	0.05
0	3359	164.611944123205	0.05
0	3361	164.711944123205	0.05
0	3363	164.811944123205	0.05
0	3365	164.911944123205	0.05
0	3367	165.011944123205	0.05
0	3368	165.077090368	0.05
0	3369	165.111944123205	0.05
0	3371	165.211944123205	0.05
0	3373	165.311944123205	0.05
0	3375	165.411944123205	0.05
0	3377	165.511944123205	0.05
0	3378	165.591977908	0.05
0	3379	165.611944123205	0.05
0	3381	165.711944123205	0.05
0	3383	165.811944123205	0.05
0	3385	165.911944123205	0.05
0	3387	166.011944123205	0.05
0	3388	166.069975255	0.05
0	3389	166.111944123205	0.05
0	3391	166.211944123205	0.05
0	3393	166.311944123205	0.05
0	3395	166.411944123205	0.05
0	3397	166.511944123205	0.05
0	3398	166.576477489	0.05
0	3399	166.593208803549	0.05
0	3400	166.611944123205	0.05
0	3402	166.711944123205	0.05
0	3404	166.811944123205	0.05
0	3406	166.911944123205	0.05
0	3408	167.011944123205	0.05
0	3410	167.111944123205	0.05
0	3411	167.184560038	0.05
0	3412	167.211944123205	0.0495
0	3412	167.211944123205	0.0495
0	3414	167.311944123205	0.0495
0	3416	167.411944123205	0.0495
0	3418	167.511944123205	0.0495
0	3420	167.611944123205	0.0495
0	3420	167.615837119	0.0495
0	3422	167.711944123205	0.0495
0	3424	167.811944123205	0.0495
0	3426	167.911944123205	0.0495
0	3428	168.011944123205	0.0495
0	3429	168.055923736	0.0495
0	3430	168.111944123205	0.0495
0	3432	168.211944123205	0.0495
0	3434	168.311944123205	0.0495
0	3435	168.349702657	0.0495
0	3436	168.411944123205	0.0495
0	3438	168.511944123205	0.0495
0	3440	168.611944123205	0.049005
0	3440	168.611944123205	0.049005
0	3442	168.711944123205	0.049005
0	3443	168.811078912	0.049005
0	3444	168.811944123205	0.049005
0	3446	168.911944123205	0.049005
0	3448	169.011944123205	0.049005
0	3450	169.111944123205	0.049005
0	3452	169.211944123205	0.049005
0	3453	169.295174377	0.049005
0	3454	169.311944123205	0.049005
0	3456	169.411944123205	0.049005
0	3458	169.511944123205	0.049005
0	3460	169.611944123205	0.049005
0	3462	169.711944123205	0.049005
0	3462	169.736269285	0.049005
0	3464	169.811944123205	0.049005
0	3466	169.911944123205	0.049005
0	3468	170.011944123205	0.04851495
0	3468	170.011944123205	0.04851495
0	3470	170.111944123205	0.04851495
0	3471	170.163335257	0.04851495
0	3472	170.211944123205	0.04851495
0	3474	170.311944123205	0.04851495
0	3476	170.411944123205	0.04851495
0	3476	170.436616225	0.04851495
0	3478	170.511944123205	0.04851495
0	3480	170.611944123205	0.04851495
0	3482	170.711944123205	0.04851495
0	3484	170.811944123205	0.04851495
0	3485	170.854505938	0.04851495
0	3486	170.895786581524	0.04851495
0	3488	170.995786581524	0.04851495
0	3490	171.095786581524	0.04851495
0	3492	171.195786581524	0.04851495
0	3494	171.295786581524	0.04851495
0	3496	171.395786581524	0.0480298005
0	3496	171.395786581524	0.0480298005
0	3497	171.455733817	0.0480298005
0	3498	171.495786581524	0.0480298005
0	3500	171.595786581524	0.0480298005
0	3502	171.695786581524	0.0480298005
0	3504	171.795786581524	0.0480298005
0	3506	171.895786581524	0.0480298005
0	3507	171.981371767	0.0480298005
0	3508	171.995786581524	0.0480298005
0	3510	172.095786581524	0.0480298005
0	3512	172.195786581524	0.0480298005
0	3514	172.295786581524	0.0480298005
0	3516	172.395786581524	0.0480298005
0	3518	172.495786581524	0.0480298005
0	3520	172.595786581524	0.0480298005
0	3520	172.630563745	0.0480298005
0	3522	172.695786581524	0.0480298005
0	3524	172.795786581524	0.047549502495
0	3524	172.795786581524	0.047549502495
0	3526	172.895786581524	0.047549502495
0	3528	172.995786581524	0.047549502495
0	3530	173.095786581524	0.047549502495
0	3532	173.195786581524	0.047549502495
0	3532	173.216799505	0.047549502495
0	3534	173.295786581524	0.047549502495
0	3536	173.395786581524	0.047549502495
0	3538	173.495786581524	0.047549502495
0	3540	173.595786581524	0.047549502495
0	3542	173.695786581524	0.047549502495
0	3543	173.775407038	0.047549502495
0	3544	173.795786581524	0.047549502495
0	3546	173.895786581524	0.047549502495
0	3548	173.995786581524	0.047549502495
0	3550	174.095786581524	0.047549502495
0	3552	174.195786581524	0.047549502495
0	3554	174.295786581524	0.04707400747005
0	3554	174.295786581524	0.04707400747005
0	3555	174.377818273	0.04707400747005
0	3556	174.395786581524	0.04707400747005
0	3558	174.495786581524	0.04707400747005
0	3560	174.595786581524	0.04707400747005
0	3561	174.657902089	0.04707400747005
0	3562	174.695786581524	0.04707400747005
0	3564	174.795786581524	0.04707400747005
0	3566	174.895786581524	0.04707400747005
0	3568	174.995786581524	0.04707400747005
0	3570	175.095786581524	0.04707400747005
0	3570	175.139837725	0.04707400747005
0	3572	175.195786581524	0.04707400747005
0	3574	175.295786581524	0.04707400747005
0	3576	175.395786581524	0.04707400747005
0	3576	175.431913261	0.04707400747005
0	3578	175.495786581524	0.04707400747005
0	3580	175.595786581524	0.04660326739535
0	3580	175.595786581524	0.04660326739535
0	3582	175.695786581524	0.04660326739535
0	3582	175.727438287	0.04660326739535
0	3584	175.795786581524	0.04660326739535
0	3586	175.895786581524	0.04660326739535
0	3588	175.995786581524	0.04660326739535
0	3588	176.014049986	0.04660326739535
0	3590	176.095786581524	0.04660326739535
0	3592	176.195786581524	0.04660326739535
0	3594	176.295786581524	0.04660326739535
0	3596	176.395786581524	0.04660326739535
0	3598	176.495786581524	0.04660326739535
0	3598	176.51095228	0.04660326739535
0	3600	176.595786581524	0.04660326739535
0	3602	176.695786581524	0.04660326739535
0	3604	176.795786581524	0.04660326739535
0	3606	176.895786581524	0.04660326739535
0	3607	176.947554277	0.046137234721396
0	3607	176.947554277	0.046137234721396
0	3608	176.995786581524	0.046137234721396
0	3610	177.095786581524	0.046137234721396
0	3612	177.195786581524	0.046137234721396
0	3614	177.295786581524	0.046137234721396
0	3616	177.395786581524	0.046137234721396
0	3618	177.495786581524	0.046137234721396
0	3618	177.507795544	0.046137234721396
0	3620	177.595786581524	0.046137234721396
0	3622	177.695786581524	0.046137234721396
0	3624	177.795786581524	0.046137234721396
0	3626	177.895786581524	0.046137234721396
0	3628	177.995786581524	0.046137234721396
0	3630	178.095786581524	0.046137234721396
0	3631	178.145255512	0.046137234721396
0	3632	178.195786581524	0.046137234721396
0	3634	178.295786581524	0.046137234721396
0	3636	178.395786581524	0.045675862374182
0	3636	178.395786581524	0.045675862374182
0	3638	178.495786581524	0.045675862374182
0	3640	178.595786581524	0.045675862374182
0	3642	178.695786581524	0.045675862374182
0	3643	178.761601852	0.045675862374182
0	3644	178.795786581524	0.045675862374182
0	3646	178.895786581524	0.045675862374182
0	3648	178.995786581524	0.045675862374182
0	3650	179.095786581524	0.045675862374182
0	3651	179.194988491	0.045675862374182
0	3652	179.195786581524	0.045675862374182
0	3654	179.295786581524	0.045675862374182
0	3656	179.395786581524	0.045675862374182
0	3657	179.40313160263	0.045675862374182
0	3659	179.50313160263	0.045675862374182
0	3661	179.60313160263	0.045675862374182
0	3662	179.658028138	0.045675862374182
0	3663	179.70313160263	0.045675862374182
0	3665	179.80313160263	0.045675862374182
0	3667	179.90313160263	0.045675862374182
0	3669	180.00313160263	0.045675862374182
0	3671	180.10313160263	0.045675862374182
0	3671	180.121554655	0.045675862374182
0	3673	180.20313160263	0.045675862374182
0	3675	180.30313160263	0.045675862374182
0	3677	180.40313160263	0.045675862374182
0	3679	180.50313160263	0.045675862374182
0	3680	180.550552423	0.045675862374182
0	3681	180.60313160263	0.045675862374182
0	3683	180.70313160263	0.045675862374182
0	3685	180.80313160263	0.045675862374182
0	3687	180.90313160263	0.045675862374182
0	3689	181.00313160263	0.045675862374182
0	3689	181.040470786	0.045675862374182
0	3691	181.10313160263	0.045675862374182
0	3693	181.20313160263	0.045675862374182
0	3695	181.30313160263	0.045675862374182
0	3697	181.40313160263	0.045675862374182
0	3699	181.50313160263	0.045675862374182
0	3699	181.53248311	0.045675862374182
0	3701	181.60313160263	0.045675862374182
0	3703	181.70313160263	0.045675862374182
0	3705	181.80313160263	0.045675862374182
0	3707	181.90313160263	0.045675862374182
0	3709	182.00313160263	0.045675862374182
0	3709	182.030172043	0.045675862374182
0	3711	182.10313160263	0.045675862374182
0	3713	182.20313160263	0.045675862374182
0	3715	182.30313160263	0.045675862374182
0	3715	182.322276748	0.045675862374182
0	3717	182.40313160263	0.045675862374182
0	3719	182.50313160263	0.045675862374182
0	3721	182.60313160263	0.045675862374182
0	3721	182.607947722	0.045675862374182
0	3723	182.70313160263	0.045675862374182
0	3725	182.80313160263	0.045675862374182
0	3726	182.867270983	0.045675862374182
0	3727	182.90313160263	0.045675862374182
0	3729	183.00313160263	0.045675862374182
0	3731	183.10313160263	0.045675862374182
0	3733	183.20313160263	0.045675862374182
0	3734	183.278121787	0.045675862374182
0	3735	183.30313160263	0.045675862374182
0	3737	183.40313160263	0.045675862374182
0	3739	183.50313160263	0.045675862374182
0	3739	183.518119144	0.045675862374182
0	3741	183.60313160263	0.045675862374182
0	3743	183.70313160263	0.045675862374182
0	3745	183.80313160263	0.045675862374182
0	3747	183.90313160263	0.045675862374182
0	3748	183.98011537	0.045675862374182
0	3749	184.00313160263	0.045675862374182
0	3751	184.10313160263	0.045675862374182
0	3753	184.20313160263	0.045675862374182
0	3755	184.30313160263	0.045675862374182
0	3757	184.40313160263	0.045675862374182
0	3758	184.500840907	0.045675862374182
0	3759	184.50313160263	0.045675862374182
0	3761	184.60313160263	0.045675862374182
0	3763	184.70313160263	0.045675862374182
0	3765	184.80313160263	0.045675862374182
0	3767	184.90313160263	0.045675862374182
0	3769	185.00313160263	0.045675862374182
0	3770	185.074658629	0.045675862374182
0	3771	185.10313160263	0.045675862374182
0	3773	185.20313160263	0.045675862374182
0	3775	185.30313160263	0.045675862374182
0	3777	185.40313160263	0.045675862374182
0	3779	185.50313160263	0.045675862374182
0	3781	185.60313160263	0.045675862374182
0	3783	185.70313160263	0.045675862374182
0	3784	185.776554409	0.045675862374182
0	3785	185.80313160263	0.045675862374182
0	3787	185.90313160263	0.045675862374182
0	3789	185.997019598251	0.045675862374182
0	3791	186.097019598251	0.045675862374182
0	3793	186.197019598251	0.045675862374182
0	3795	186.297019598251	0.045675862374182
0	3796	186.347897152	0.045675862374182
0	3797	186.397019598251	0.045675862374182
0	3799	186.497019598251	0.045675862374182
0	3801	186.597019598251	0.045675862374182
0	3803	186.697019598251	0.045675862374182
0	3805	186.797019598251	0.045675862374182
0	3807	186.897019598251	0.045675862374182
0	3809	186.997019598251	0.045675862374182
0	3811	187.097019598251	0.045675862374182
0	3811	187.099646833	0.045675862374182
0	3813	187.197019598251	0.045675862374182
0	3815	187.297019598251	0.045675862374182
0	3817	187.397019598251	0.045675862374182
0	3819	187.497019598251	0.045675862374182
0	3819	187.518654577	0.045675862374182
0	3821	187.597019598251	0.045675862374182
0	3823	187.697019598251	0.045675862374182
0	3825	187.797019598251	0.045675862374182
0	3827	187.897019598251	0.045675862374182
0	3828	187.951809751	0.045675862374182
0	3829	187.997019598251	0.045675862374182
0	3831	188.097019598251	0.045675862374182
0	3832	188.196458596	0.045675862374182
0	3833	188.197019598251	0.045675862374182
0	3835	188.297019598251	0.045675862374182
0	3837	188.397019598251	0.045675862374182
0	3839	188.497019598251	0.045675862374182
0	3841	188.597019598251	0.045675862374182
0	3843	188.697019598251	0.045675862374182
0	3843	188.730158827	0.045675862374182
0	3845	188.797019598251	0.045675862374182
0	3847	188.897019598251	0.045675862374182
0	3849	188.997019598251	0.045675862374182
0	3851	189.097019598251	0.045675862374182
0	3852	189.165213544	0.045675862374182
0	3853	189.197019598251	0.045675862374182
0	3855	189.297019598251	0.045675862374182
0	3857	189.397019598251	0.045675862374182
0	3859	189.497019598251	0.045675862374182
0	3861	189.597019598251	0.045675862374182
0	3862	189.678283693	0.045675862374182
0	3863	189.697019598251	0.045675862374182
0	3865	189.797019598251	0.045675862374182
0	3867	189.897019598251	0.045675862374182
0	3869	189.997019598251	0.045675862374182
0	3871	190.097019598251	0.045675862374182
0	3871	190.107239164	0.045675862374182
0	3873	190.197019598251	0.045675862374182
0	3875	190.297019598251	0.045675862374182
0	3877	190.397019598251	0.045675862374182
0	3879	190.497019598251	0.045675862374182
0	3879	190.543727869	0.045675862374182
0	3881	190.597019598251	0.045675862374182
0	3883	190.697019598251	0.045675862374182
0	3885	190.797019598251	0.045675862374182
0	3887	190.897019598251	0.045675862374182
0	3889	190.997019598251	0.045675862374182
0	3889	191.004715762	0.045675862374182
0	3891	191.097019598251	0.045675862374182
0	3893	191.163662523722	0.045675862374182
0	3895	191.263662523722	0.045675862374182
0	3897	191.363662523722	0.045675862374182
0	3899	191.463662523722	0.045675862374182
0	3899	191.495894323	0.045675862374182
0	3901	191.563662523722	0.045675862374182
0	3903	191.663662523722	0.045675862374182
0	3905	191.763662523722	0.045675862374182
0	3907	191.863662523722	0.045675862374182
0	3907	191.939629261	0.045675862374182
0	3909	191.963662523722	0.045675862374182
0	3911	192.063662523722	0.045675862374182
0	3913	192.163662523722	0.045675862374182
0	3913	192.232396237	0.045675862374182
0	3915	192.263662523722	0.045675862374182
0	3917	192.363662523722	0.045675862374182
0	3919	192.463662523722	0.045675862374182
0	3921	192.563662523722	0.045675862374182
0	3922	192.652616311	0.045675862374182
0	3923	192.663662523722	0.045675862374182
0	3925	192.763662523722	0.045675862374182
0	3927	192.863662523722	0.045675862374182
0	3929	192.963662523722	0.045675862374182
0	3931	193.063662523722	0.045675862374182
0	3933	193.163662523722	0.045675862374182
0	3933	193.214218507	0.045675862374182
0	3935	193.263662523722	0.045675862374182
0	3937	193.363662523722	0.045675862374182
0	3939	193.463662523722	0.045675862374182
0	3941	193.563662523722	0.045675862374182
0	3941	193.639395445	0.045675862374182
0	3943	193.663662523722	0.045675862374182
0	3945	193.763662523722	0.045675862374182
0	3947	193.863662523722	0.045675862374182
0	3947	193.931651935	0.045675862374182
0	3949	193.963662523722	0.045675862374182
0	3951	194.063662523722	0.045675862374182
0	3953	194.163662523722	0.045675862374182
0	3955	194.263662523722	0.045675862374182
0	3955	194.338342921	0.045675862374182
0	3957	194.363662523722	0.045675862374182
0	3959	194.463662523722	0.045675862374182
0	3961	194.563662523722	0.045675862374182
0	3963	194.663662523722	0.045675862374182
0	3965	194.763662523722	0.045675862374182
0	3965	194.811684019	0.045675862374182
0	3967	194.863662523722	0.045675862374182
0	3969	194.963662523722	0.045675862374182
0	3971	195.063662523722	0.045675862374182
0	3973	195.163662523722	0.045675862374182
0	3975	195.263662523722	0.045675862374182
0	3975	195.288239068	0.045675862374182
0	3977	195.363662523722	0.045675862374182
0	3979	195.463662523722	0.045675862374182
0	3981	195.563662523722	0.045675862374182
0	3981	195.573355093	0.045675862374182
0	3983	195.663662523722	0.045675862374182
0	3985	195.763662523722	0.045675862374182
0	3987	195.863662523722	0.045675862374182
0	3989	195.963662523722	0.045675862374182
0	3989	196.001281777	0.045675862374182
0	3991	196.063662523722	0.045675862374182
0	3993	196.163662523722	0.045675862374182
0	3995	196.263662523722	0.045675862374182
0	3995	196.297709506	0.045675862374182
0	3997	196.363662523722	0.045675862374182
0	3999	196.463662523722	0.045675862374182
0	4001	196.563662523722	0.045675862374182
0	4003	196.663662523722	0.045675862374182
0	4005	196.763662523722	0.045675862374182
0	4007	196.863662523722	0.045675862374182
0	4007	196.906107691	0.045675862374182
0	4009	196.963662523722	0.045675862374182
0	4011	197.063662523722	0.045675862374182
0	4013	197.163662523722	0.045675862374182
0	4015	197.263662523722	0.045675862374182
0	4017	197.363662523722	0.045675862374182
0	4017	197.41626658	0.045675862374182
0	4019	197.463662523722	0.045675862374182
0	4021	197.563662523722	0.045675862374182
0	4023	197.663662523722	0.045675862374182
0	4025	197.763662523722	0.045675862374182
0	4027	197.863662523722	0.045675862374182
0	4027	197.879413774	0.045675862374182
0	4029	197.963662523722	0.045675862374182
0	4031	198.063662523722	0.045675862374182
0	4033	198.163662523722	0.045675862374182
[...]
2	6890	336.733028815812	0.05
2	6892	336.833028815812	0.05
2	6894	336.933028815812	0.05
2	6894	336.984510661	0.05
2	6896	337.033028815812	0.05
2	6898	337.133028815812	0.05
2	6900	337.233028815812	0.05
2	6900	337.282868695	0.05
2	6902	337.333028815812	0.05
2	6904	337.433028815812	0.05
2	6906	337.533028815812	0.05
2	6908	337.633028815812	0.05
2	6908	337.702191652	0.05
2	6910	337.733028815812	0.05
2	6912	337.833028815812	0.05
2	6914	337.933028815812	0.05
2	6916	338.033028815812	0.05
2	6916	338.109710134	0.05
2	6918	338.133028815812	0.05
2	6920	338.233028815812	0.05
2	6922	338.333028815812	0.05
2	6924	338.433028815812	0.05
2	6926	338.533028815812	0.05
2	6928	338.633028815812	0.05
2	6928	338.667964618	0.05
2	6930	338.733028815812	0.05
2	6932	338.833028815812	0.05
2	6934	338.933028815812	0.05
2	6936	339.033028815812	0.05
2	6936	339.119819371	0.05
2	6938	339.133028815812	0.05
2	6940	339.233028815812	0.05
2	6942	339.333028815812	0.05
2	6944	339.433028815812	0.05
2	6946	339.533028815812	0.05
2	6946	339.599770507	0.05
2	6948	339.633028815812	0.05
2	6950	339.733028815812	0.05
2	6952	339.833028815812	0.05
2	6954	339.933028815812	0.05
2	6956	340.033028815812	0.05
2	6956	340.129327699	0.05
2	6958	340.133028815812	0.05
2	6960	340.233028815812	0.05
2	6962	340.333028815812	0.05
2	6962	340.41166519	0.05
2	6964	340.433028815812	0.05
2	6966	340.533028815812	0.05
2	6968	340.633028815812	0.05
2	6970	340.733028815812	0.05
2	6972	340.833028815812	0.05
2	6972	340.880946316	0.05
2	6974	340.933028815812	0.05
2	6976	341.033028815812	0.05
2	6978	341.133028815812	0.05
2	6980	341.233028815812	0.05
2	6982	341.333028815812	0.05
2	6982	341.336993512	0.05
2	6984	341.433028815812	0.05
2	6986	341.533028815812	0.05
2	6986	341.625956521	0.05
2	6988	341.633028815812	0.05
2	6990	341.733028815812	0.05
2	6992	341.833028815812	0.05
2	6992	341.903448565	0.05
2	6994	341.933028815812	0.05
2	6996	342.033028815812	0.05
2	6998	342.133028815812	0.05
2	6998	342.190539616	0.05
2	7000	342.233028815812	0.05
2	7002	342.333028815812	0.05
2	7004	342.433028815812	0.05
2	7006	342.533028815812	0.05
2	7008	342.633028815812	0.05
2	7010	342.733028815812	0.05
2	7012	342.833028815812	0.05
2	7012	342.873771637	0.05
2	7014	342.933028815812	0.05
2	7016	343.033028815812	0.05
2	7018	343.133028815812	0.05
2	7020	343.233028815812	0.05
2	7022	343.333028815812	0.05
2	7022	343.409189491	0.05
2	7024	343.433028815812	0.05
2	7026	343.533028815812	0.05
2	7028	343.633028815812	0.05
2	7030	343.733028815812	0.05
2	7030	343.81157182	0.05
2	7032	343.833028815812	0.05
2	7034	343.933028815812	0.05
2	7036	344.033028815812	0.05
2	7038	344.133028815812	0.05
2	7040	344.233028815812	0.05
2	7040	344.309087671	0.05
2	7042	344.333028815812	0.05
2	7044	344.433028815812	0.05
2	7046	344.533028815812	0.05
2	7048	344.633028815812	0.05
2	7050	344.733028815812	0.05
2	7052	344.833028815812	0.05
2	7054	344.933028815812	0.05
2	7054	345.001390795	0.05
2	7056	345.033028815812	0.05
2	7058	345.133028815812	0.05
2	7060	345.233028815812	0.05
2	7062	345.333028815812	0.05
2	7064	345.433028815812	0.05
2	7064	345.530557261	0.05
2	7066	345.533028815812	0.05
2	7068	345.633028815812	0.05
2	7070	345.733028815812	0.05
2	7072	345.833028815812	0.05
2	7074	345.933028815812	0.05
2	7074	346.029096289	0.05
2	7076	346.033028815812	0.05
2	7078	346.133028815812	0.05
2	7080	346.233028815812	0.05
2	7082	346.333028815812	0.05
2	7084	346.433028815812	0.05
2	7086	346.533028815812	0.05
2	7086	346.615770898	0.05
2	7088	346.633028815812	0.05
2	7090	346.733028815812	0.05
2	7092	346.833028815812	0.05
2	7094	346.933028815812	0.05
2	7096	347.033028815812	0.05
2	7098	347.133028815812	0.05
2	7100	347.233028815812	0.05
2	7100	347.296090021	0.05
2	7102	347.333028815812	0.05
2	7104	347.433028815812	0.05
2	7106	347.533028815812	0.05
2	7108	347.633028815812	0.05
2	7110	347.733028815812	0.05
2	7110	347.763575005	0.05
2	7112	347.833028815812	0.05
2	7114	347.933028815812	0.05
2	7116	348.033028815812	0.05
2	7118	348.133028815812	0.05
2	7118	348.183430051	0.05
2	7120	348.233028815812	0.05
2	7122	348.333028815812	0.05
2	7124	348.433028815812	0.05
2	7126	348.533028815812	0.05
2	7126	348.608489932	0.05
2	7128	348.633028815812	0.05
2	7130	348.733028815812	0.05
2	7132	348.833028815812	0.05
2	7132	348.894552466	0.05
2	7134	348.933028815812	0.05
2	7136	349.033028815812	0.05
2	7138	349.133028815812	0.05
2	7140	349.233028815812	0.05
2	7142	349.333028815812	0.05
2	7144	349.433028815812	0.05
2	7146	349.533028815812	0.05
2	7146	349.566786727	0.05
2	7148	349.633028815812	0.05
2	7150	349.733028815812	0.05
2	7152	349.833028815812	0.05
2	7154	349.933028815812	0.05
2	7156	350.033028815812	0.05
2	7158	350.133028815812	0.05
2	7158	350.166825664	0.05
2	7160	350.233028815812	0.05
2	7162	350.333028815812	0.05
2	7164	350.433028815812	0.05
2	7166	350.533028815812	0.05
2	7168	350.633028815812	0.05
2	7168	350.663237638	0.05
2	7170	350.733028815812	0.05
2	7172	350.833028815812	0.05
2	7174	350.933028815812	0.05
2	7176	351.033028815812	0.05
2	7178	351.133028815812	0.05
2	7178	351.164470705	0.05
2	7180	351.233028815812	0.05
2	7182	351.333028815812	0.05
2	7184	351.433028815812	0.05
2	7186	351.533028815812	0.05
2	7188	351.633028815812	0.05
2	7188	351.726327994	0.05
2	7190	351.733028815812	0.05
2	7192	351.833028815812	0.05
2	7194	351.933028815812	0.05
2	7196	352.033028815812	0.05
2	7198	352.133028815812	0.05
2	7200	352.233028815812	0.05
2	7202	352.333028815812	0.05
2	7204	352.433028815812	0.05
2	7204	352.458284812	0.05
2	7206	352.533028815812	0.05
2	7208	352.633028815812	0.05
2	7210	352.733028815812	0.05
2	7212	352.833028815812	0.05
2	7214	352.933028815812	0.05
2	7216	353.033028815812	0.05
2	7216	353.034859069	0.05
2	7218	353.133028815812	0.05
2	7220	353.233028815812	0.05
2	7222	353.333028815812	0.05
2	7224	353.433028815812	0.05
2	7226	353.533028815812	0.05
2	7228	353.633028815812	0.05
2	7228	353.695369813	0.05
2	7230	353.733028815812	0.05
2	7232	353.833028815812	0.05
2	7234	353.933028815812	0.05
2	7236	354.033028815812	0.05
2	7238	354.133028815812	0.05
2	7240	354.233028815812	0.05
2	7242	354.333028815812	0.05
2	7242	354.388702894	0.05
2	7244	354.433028815812	0.05
2	7246	354.533028815812	0.05
2	7248	354.633028815812	0.05
2	7250	354.733028815812	0.05
2	7252	354.833028815812	0.05
2	7252	354.901900921	0.05
2	7254	354.933028815812	0.05
2	7256	355.033028815812	0.05
2	7258	355.133028815812	0.05
2	7260	355.233028815812	0.05
2	7262	355.333028815812	0.05
2	7262	355.338096616	0.05
2	7264	355.433028815812	0.05
2	7266	355.533028815812	0.05
2	7268	355.633028815812	0.05
2	7270	355.733028815812	0.05
2	7272	355.833028815812	0.05
2	7274	355.933028815812	0.05
2	7274	355.963829434	0.05
2	7276	356.033028815812	0.05
2	7278	356.133028815812	0.05
2	7280	356.233028815812	0.05
2	7282	356.333028815812	0.05
2	7282	356.411141047	0.05
2	7284	356.433028815812	0.05
2	7286	356.533028815812	0.05
2	7288	356.633028815812	0.05
2	7290	356.733028815812	0.05
2	7292	356.833028815812	0.05
2	7292	356.928153538	0.05
2	7294	356.933028815812	0.05
2	7296	357.033028815812	0.05
2	7298	357.133028815812	0.05
2	7300	357.233028815812	0.05
2	7302	357.333028815812	0.05
2	7302	357.335676049	0.05
2	7304	357.433028815812	0.05
2	7306	357.533028815812	0.05
2	7308	357.633028815812	0.05
2	7310	357.733028815812	0.05
2	7310	357.773437927	0.05
2	7312	357.833028815812	0.05
2	7314	357.933028815812	0.05
2	7316	358.033028815812	0.05
2	7318	358.133028815812	0.05
2	7318	358.224081424	0.05
2	7320	358.233028815812	0.05
2	7322	358.333028815812	0.05
2	7324	358.433028815812	0.05
2	7326	358.533028815812	0.05
2	7328	358.633028815812	0.05
2	7328	358.634165782	0.05
2	7330	358.733028815812	0.05
2	7332	358.833028815812	0.05
2	7334	358.933028815812	0.05
2	7336	359.033028815812	0.05
2	7336	359.120839126	0.05
2	7338	359.133028815812	0.05
2	7340	359.233028815812	0.05
2	7342	359.333028815812	0.05
2	7344	359.433028815812	0.05
2	7344	359.528155327	0.05
2	7346	359.533028815812	0.05
2	7348	359.633028815812	0.05
2	7350	359.733028815812	0.05
2	7350	359.825403283	0.05
2	7352	359.833028815812	0.05
2	7354	359.933028815812	0.05
2	7356	360.033028815812	0.05
2	7356	360.11416288	0.05
2	7358	360.133028815812	0.05
2	7360	360.233028815812	0.05
2	7362	360.333028815812	0.05
2	7362	360.409400707	0.05
2	7364	360.433028815812	0.05
2	7366	360.533028815812	0.05
2	7368	360.633028815812	0.05
2	7370	360.733028815812	0.05
2	7372	360.833028815812	0.05
2	7372	360.886123015	0.05
2	7374	360.933028815812	0.05
2	7376	361.033028815812	0.05
2	7378	361.133028815812	0.05
2	7380	361.233028815812	0.05
2	7382	361.333028815812	0.05
2	7382	361.345165483	0.05
2	7384	361.433028815812	0.05
2	7386	361.533028815812	0.05
2	7388	361.633028815812	0.05
2	7390	361.733028815812	0.05
2	7392	361.833028815812	0.05
2	7392	361.867922776	0.05
2	7394	361.933028815812	0.05
2	7396	362.033028815812	0.05
2	7398	362.133028815812	0.05
2	7400	362.233028815812	0.05
2	7402	362.333028815812	0.05
2	7404	362.433028815812	0.05
2	7404	362.483464975	0.05
2	7406	362.533028815812	0.05
2	7408	362.633028815812	0.05
2	7410	362.733028815812	0.05
2	7412	362.833028815812	0.05
2	7412	362.926464868	0.05
2	7414	362.933028815812	0.05
2	7416	363.033028815812	0.05
2	7418	363.133028815812	0.05
2	7420	363.233028815812	0.05
2	7422	363.333028815812	0.05
2	7422	363.369754186	0.05
2	7424	363.433028815812	0.05
2	7426	363.533028815812	0.05
2	7428	363.633028815812	0.05
2	7430	363.733028815812	0.05
2	7430	363.757565032	0.05
2	7432	363.833028815812	0.05
2	7434	363.933028815812	0.05
2	7436	364.033028815812	0.05
2	7438	364.133028815812	0.05
2	7438	364.203015766	0.05
2	7440	364.233028815812	0.05
2	7442	364.333028815812	0.05
2	7444	364.433028815812	0.05
2	7446	364.533028815812	0.05
2	7448	364.633028815812	0.05
2	7448	364.71415177	0.05
2	7450	364.733028815812	0.05
2	7452	364.833028815812	0.05
2	7454	364.933028815812	0.05
2	7454	365.010561184	0.05
2	7456	365.033028815812	0.05
2	7458	365.133028815812	0.05
2	7460	365.233028815812	0.05
2	7462	365.333028815812	0.05
2	7464	365.433028815812	0.05
2	7464	365.442921709	0.05
2	7466	365.533028815812	0.05
2	7468	365.633028815812	0.05
2	7470	365.733028815812	0.05
2	7472	365.833028815812	0.05
2	7472	365.875130653	0.05
2	7474	365.933028815812	0.05
2	7476	366.033028815812	0.05
2	7478	366.133028815812	0.05
2	7480	366.233028815812	0.05
2	7480	366.331027078	0.05
2	7482	366.333028815812	0.05
2	7484	366.433028815812	0.05
2	7486	366.533028815812	0.05
2	7486	366.583827376	0.05
2	7488	366.633028815812	0.05
2	7490	366.733028815812	0.05
2	7492	366.833028815812	0.05
2	7494	366.933028815812	0.05
2	7496	367.033028815812	0.05
2	7496	367.091965828	0.05
2	7498	367.133028815812	0.05
2	7500	367.233028815812	0.05
2	7502	367.333028815812	0.05
2	7504	367.433028815812	0.05
2	7506	367.533028815812	0.05
2	7506	367.583051701	0.05
2	7508	367.633028815812	0.05
2	7510	367.733028815812	0.05
2	7512	367.833028815812	0.05
2	7514	367.933028815812	0.05
2	7514	367.979889829	0.05
2	7516	368.033028815812	0.05
2	7518	368.133028815812	0.05
2	7520	368.233028815812	0.05
2	7522	368.333028815812	0.05
2	7524	368.433028815812	0.05
2	7524	368.511805516	0.05
2	7526	368.533028815812	0.05
2	7528	368.633028815812	0.05
2	7530	368.733028815812	0.05
2	7532	368.833028815812	0.05
2	7534	368.933028815812	0.05
2	7534	368.970177709	0.05
2	7536	369.033028815812	0.05
2	7538	369.133028815812	0.05
2	7539	369.211194447477	0.05
2	7541	369.311194447477	0.05
2	7542	369.403841353	0.05
2	7543	369.411194447477	0.05
2	7545	369.511194447477	0.0495
2	7545	369.511194447477	0.0495
2	7547	369.611194447477	0.0499
2	7549	369.711194447477	0.05
2	7551	369.811194447477	0.05
2	7552	369.900276955	0.05
2	7553	369.911194447477	0.05
2	7555	370.011194447477	0.05
2	7557	370.111194447477	0.05
2	7559	370.211194447477	0.05
2	7561	370.311194447477	0.05
2	7563	370.411194447477	0.05
2	7565	370.511194447477	0.05
2	7565	370.523656195	0.05
2	7567	370.611194447477	0.05
2	7569	370.711194447477	0.05
2	7571	370.811194447477	0.05
2	7573	370.911194447477	0.05
2	7574	370.960231042	0.05
2	7575	371.011194447477	0.05
2	7577	371.111194447477	0.05
2	7579	371.211194447477	0.05
2	7581	371.311194447477	0.05
2	7582	371.374481827	0.05
2	7583	371.411194447477	0.05
2	7585	371.511194447477	0.05
2	7587	371.611194447477	0.05
2	7589	371.711194447477	0.05
2	7590	371.772595837	0.05
2	7591	371.811194447477	0.05
2	7593	371.911194447477	0.05
2	7596	372.011194447477	0.05
2	7599	372.111194447477	0.05
2	7602	372.211194447477	0.05
2	7602	372.225762676	0.05
2	7605	372.311194447477	0.05
2	7607	372.411194447477	0.05
2	7610	372.511194447477	0.05
2	7613	372.611194447477	0.05
2	7615	372.685875697	0.05
2	7616	372.711194447477	0.05
2	7619	372.811194447477	0.05
2	7621	372.911194447477	0.05
2	7624	373.011194447477	0.05
2	7627	373.111194447477	0.05
2	7630	373.211194447477	0.05
2	7630	373.213695034	0.05
2	7633	373.311194447477	0.05
2	7636	373.411194447477	0.05
2	7638	373.511194447477	0.05
2	7640	373.611194447477	0.05
2	7641	373.657394989	0.05
2	7642	373.711194447477	0.05
2	7644	373.811194447477	0.05
2	7646	373.911194447477	0.05
2	7648	374.011194447477	0.05
2	7650	374.111194447477	0.05
2	7651	374.157259276	0.05
2	7652	374.211194447477	0.05
2	7654	374.311194447477	0.05
2	7656	374.411194447477	0.05
2	7658	374.511194447477	0.05
2	7660	374.611194447477	0.05
2	7661	374.656745764	0.05
2	7662	374.711194447477	0.05
2	7664	374.811194447477	0.05
2	7666	374.911194447477	0.05
2	7668	375.011194447477	0.05
2	7670	375.111194447477	0.05
2	7671	375.142539991	0.05
2	7672	375.211194447477	0.05
2	7674	375.311194447477	0.05
2	7676	375.411194447477	0.05
2	7678	375.511194447477	0.05
2	7679	375.562130575	0.05
2	7680	375.611194447477	0.05
2	7682	375.711194447477	0.05
2	7684	375.811194447477	0.05
2	7686	375.911194447477	0.05
2	7688	376.011194447477	0.05
2	7689	376.041220534	0.05
2	7690	376.111194447477	0.05
2	7692	376.211194447477	0.05
2	7694	376.311194447477	0.05
2	7696	376.411194447477	0.05
2	7698	376.511194447477	0.05
2	7699	376.587218068	0.05
2	7700	376.611194447477	0.05
2	7702	376.711194447477	0.05
2	7704	376.811194447477	0.05
2	7705	376.886407051	0.05
2	7706	376.911194447477	0.05
2	7708	377.011194447477	0.05
2	7710	377.111194447477	0.05
2	7712	377.211194447477	0.05
2	7714	377.311194447477	0.05
2	7715	377.39151175	0.0495
2	7715	377.39151175	0.0495
2	7716	377.411194447477	0.049578730789908
2	7718	377.511194447477	0.049978730789908
2	7720	377.611194447477	0.05
2	7722	377.711194447477	0.05
2	7724	377.811194447477	0.05
2	7725	377.841994516	0.05
2	7726	377.911194447477	0.05
2	7728	378.011194447477	0.05
2	7730	378.111194447477	0.05
2	7730	378.116769631	0.05
2	7732	378.211194447477	0.05
2	7734	378.311194447477	0.05
2	7735	378.40146163	0.05
2	7736	378.411194447477	0.05
2	7738	378.511194447477	0.05
2	7740	378.611194447477	0.05
2	7742	378.711194447477	0.05
2	7744	378.811194447477	0.05
2	7745	378.875098084	0.05
2	7746	378.911194447477	0.05
2	7748	379.011194447477	0.05
2	7750	379.111194447477	0.05
2	7752	379.211194447477	0.05
2	7753	379.307769982	0.05
2	7754	379.311194447477	0.05
2	7756	379.411194447477	0.05
2	7758	379.511194447477	0.05
2	7759	379.602393733	0.05
2	7760	379.611194447477	0.05
2	7762	379.711194447477	0.05
2	7764	379.811194447477	0.05
2	7766	379.911194447477	0.05
2	7768	380.011194447477	0.05
2	7769	380.072798896	0.0495
2	7769	380.072798896	0.0495
2	7770	380.111194447477	0.049653582205908
2	7772	380.211194447477	0.05
2	7774	380.311194447477	0.05
2	7776	380.411194447477	0.05
2	7777	380.48733571	0.05
2	7778	380.511194447477	0.05
2	7780	380.611194447477	0.05
2	7782	380.711194447477	0.05
2	7784	380.811194447477	0.05
2	7786	380.911194447477	0.05
2	7787	380.962266799	0.05
2	7788	381.011194447477	0.05
2	7790	381.111194447477	0.05
2	7792	381.211194447477	0.05
2	7794	381.311194447477	0.05
2	7795	381.400398526	0.05
2	7796	381.411194447477	0.05
2	7798	381.511194447477	0.05
2	7801	381.611194447477	0.05
2	7803	381.711194447477	0.05
2	7805	381.811194447477	0.05
2	7806	381.871912393	0.05
2	7807	381.911194447477	0.05
2	7809	382.011194447477	0.05
2	7811	382.111194447477	0.05
2	7813	382.211194447477	0.05
2	7814	382.282451836	0.05
2	7815	382.311194447477	0.05
2	7817	382.411194447477	0.05
2	7819	382.511194447477	0.05
2	7821	382.611194447477	0.05
2	7823	382.711194447477	0.05
2	7825	382.811194447477	0.05
2	7825	382.817851072	0.0495
2	7825	382.817851072	0.0495
2	7827	382.911194447477	0.049873373501908
2	7829	383.011194447477	0.05
2	7831	383.111194447477	0.05
2	7833	383.211194447477	0.05
2	7835	383.311194447477	0.05
2	7836	383.403363832	0.05
2	7837	383.411194447477	0.05
2	7839	383.511194447477	0.05
2	7841	383.611194447477	0.05
2	7843	383.711194447477	0.05
2	7845	383.811194447477	0.05
2	7847	383.911194447477	0.05
2	7849	384.011194447477	0.05
2	7850	384.035590429	0.05
2	7851	384.111194447477	0.05
2	7853	384.211194447477	0.05
2	7855	384.311194447477	0.0495
2	7855	384.311194447477	0.0495
2	7857	384.411194447477	0.0499
2	7859	384.511194447477	0.05
2	7861	384.611194447477	0.05
2	7861	384.613388383	0.05
2	7863	384.711194447477	0.05
2	7865	384.811194447477	0.05
2	7867	384.911194447477	0.05
2	7869	385.011194447477	0.05
2	7869	385.030619053	0.05
2	7871	385.111194447477	0.05
2	7873	385.211194447477	0.05
2	7875	385.311194447477	0.05
2	7875	385.328065477	0.05
2	7877	385.411194447477	0.05
2	7879	385.511194447477	0.05
2	7881	385.611194447477	0.05
2	7883	385.711194447477	0.0495
2	7883	385.711194447477	0.0495
2	7885	385.811194447477	0.0499
2	7886	385.858714138	0.05
2	7887	385.911194447477	0.05
2	7889	386.011194447477	0.05
2	7891	386.111194447477	0.05
2	7892	386.138333896	0.05
2	7893	386.211194447477	0.05
2	7895	386.311194447477	0.05
2	7897	386.411194447477	0.05
2	7899	386.511194447477	0.05
2	7900	386.582502355	0.05
2	7901	386.611194447477	0.05
2	7903	386.711194447477	0.05
2	7905	386.811194447477	0.05
2	7905	386.830836709	0.05
2	7907	386.911194447477	0.05
2	7909	387.011194447477	0.0495
2	7909	387.011194447477	0.0495
2	7911	387.111194447477	0.0499
2	7913	387.211194447477	0.05
2	7914	387.30085285	0.05
2	7915	387.311194447477	0.05
2	7917	387.411194447477	0.05
2	7919	387.511194447477	0.05
2	7920	387.586237084	0.05
2	7921	387.611194447477	0.05
2	7923	387.711194447477	0.05
2	7925	387.811194447477	0.05
2	7926	387.88646485	0.05
2	7927	387.911194447477	0.05
2	7929	388.011194447477	0.05
2	7930	388.103633383	0.05
2	7931	388.111194447477	0.05
2	7933	388.211194447477	0.05
2	7935	388.311194447477	0.0495
2	7935	388.311194447477	0.0495
2	7937	388.411194447477	0.0499
2	7939	388.511194447477	0.05
2	7940	388.551953782	0.05
2	7941	388.611194447477	0.05
2	7943	388.711194447477	0.05
2	7945	388.811194447477	0.05
2	7946	388.842338785	0.05
2	7947	388.911194447477	0.05
2	7949	389.011194447477	0.05
2	7951	389.111194447477	0.05
2	7951	389.121218866	0.05
2	7953	389.211194447477	0.05
2	7955	389.311194447477	0.05
2	7957	389.411194447477	0.05
2	7958	389.507444887	0.05
2	7959	389.511194447477	0.05
2	7961	389.611194447477	0.0495
2	7961	389.611194447477	0.0495
2	7963	389.711194447477	0.0499
2	7965	389.811194447477	0.05
2	7967	389.911194447477	0.05
2	7967	389.927605723	0.05
2	7969	390.011194447477	0.05
2	7971	390.111194447477	0.05
2	7973	390.211194447477	0.05
2	7975	390.311194447477	0.05
2	7976	390.339780157	0.05
2	7977	390.411194447477	0.05
2	7979	390.511194447477	0.05
2	7981	390.611194447477	0.05
2	7983	390.711194447477	0.05
2	7985	390.811194447477	0.05
2	7985	390.813974887	0.05
2	7985	390.833832293921	0.05
3	0	0	0.004
3	953	46.974101355068	0
3	2280	112.827386253645	0.004
3	2569	125.782972447605	0
3	3120	152.979346507377	0.004
3	3131	153.35658494004	0
3	4598	225.597738882696	0.004
4	0	0	0.004
4	461	23.08057828677	0
4	736	36.722021155953	0.004
4	786	38.60181638505	0
4	1002	49.312842104821	0.004
4	1949	96.434457459934	0
4	2386	117.399925061716	0.004
4	2715	132.946184811519	0
4	2738	134.000777413637	0.004
4	3399	166.593208803549	0
4	4076	200.264881404816	0.004
4	4925	240.627862868628	0
4	6457	317.02067965848	0.004
4	6582	321.450279416071	0
4	7595	371.943303268018	0.004
4	7635	373.371757535713	0
5	0	0	0.004
5	953	46.974101355068	0
5	2280	112.827386253645	0.004
5	2569	125.782972447605	0
5	3120	152.979346507377	0.004
5	3131	153.35658494004	0
5	4598	225.597738882696	0.004

