version 2
run Mysterio_ex2-0-20210814-16:44:14-11713
attr configname Mysterio_ex2
attr datetime 20210814-16:44:14
attr experiment Mysterio_ex2
attr inifile omnetpp.ini
attr iterationvars ""
attr iterationvarsf ""
attr measurement ""
attr network MysterioCommunication2
attr processid 11713
attr repetition 0
attr replication #0
attr resultdir results
attr runnumber 0
attr seedset 0
param *.host[*].mobility.numeroDrones 2
param *.numHosts 2
param *.host[*].osgModel "\"3d/drone.ive.100.scale.0,0,90.rot\""
param *.basestation.osgModel "\"3d/car.ive.50.scale.0,0,90.rot\""
param *.canvasVisualizer.energyStorageVisualizer.displayEnergyStorages true
param *.host[*].hasStatus true
param *.host[*].energyStorage.typename "\"SimpleEpEnergyStorage\""
param *.host[*].wlan[*].radio.energyConsumer.typename "\"StateBasedEpEnergyConsumer\""
param *.host[*].energyManagement.typename "\"SimpleEpEnergyManagement\""
param *.host[*].energyStorage.nominalCapacity 0.05J
param *.host[*].energyManagement.nodeShutdownCapacity "0.1 * energyStorage.nominalCapacity"
param *.host[*].energyManagement.nodeStartCapacity "0.5 * energyStorage.nominalCapacity"
param *.host[*].energyStorage.initialCapacity 0.05J
param *.host[*].energyGenerator.typename "\"AlternatingEpEnergyGenerator\""
param *.host[*].energyGenerator.powerGeneration 4mW
param *.host[*].energyGenerator.sleepInterval exponential(25s)
param *.host[*].energyGenerator.generationInterval exponential(25s)
param *.host[*].mobility.typename "\"UAVMobility\""
param *.host[*].mobility.changeInterval 1s
param *.host[*].mobility.initialMovementHeading "uniform(0deg, 360deg)"
param *.host[*].mobility.initialMovementElevation "uniform(-90deg, 90deg)"
param *.host[*].mobility.angleDelta uniform(-10deg,10deg)
param *.host[*].mobility.rotationAxisAngle uniform(-10deg,10deg)
param *.host[*].mobility.speed uniform(10mps,20mps)
param *.host[*].mobility.faceForward false
param *.host[*].mobility.initialX 220m
param *.host[*].mobility.initialY 220m
param *.host[*].mobility.initialZ 80m
param *.visualizer.osgVisualizer.typename "\"IntegratedOsgVisualizer\""
param *.visualizer.osgVisualizer.sceneVisualizer.clearColor "\"skyblue\""
param *.visualizer.osgVisualizer.sceneVisualizer.sceneImage "\"showcases/desert\""
param *.visualizer.osgVisualizer.sceneVisualizer.sceneImageSize 5000m
param *.visualizer.osgVisualizer.sceneVisualizer.axisLength 1000m
param *.visualizer.osgVisualizer.sceneVisualizer.sceneMinX -2000m
param *.visualizer.osgVisualizer.sceneVisualizer.sceneMinY -2000m
param *.visualizer.osgVisualizer.sceneVisualizer.sceneMinZ 0m
param *.visualizer.osgVisualizer.sceneVisualizer.sceneMaxX 3000m
param *.visualizer.osgVisualizer.sceneVisualizer.sceneMaxY 3000m
param *.visualizer.osgVisualizer.sceneVisualizer.sceneMaxZ 1000m
param *.visualizer.osgVisualizer.networkNodeVisualizer.displayModuleName false
param *.visualizer.*.mobilityVisualizer.displayMobility true
param *.visualizer.*.mobilityVisualizer.displayPositions true
param *.visualizer.*.mobilityVisualizer.displayOrientations false
param *.visualizer.*.mobilityVisualizer.displayVelocities true
param *.visualizer.*.mobilityVisualizer.displayMovementTrails true
param *.visualizer.*.mobilityVisualizer.animationSpeed 3
param **.constraintAreaMinX 0m
param **.constraintAreaMinY 0m
param **.constraintAreaMinZ 0m
param **.constraintAreaMaxX 1000m
param **.constraintAreaMaxY 1000m
param **.constraintAreaMaxZ 1000m
param **.networkConfiguratorModule "\"\""

vector 0 MysterioCommunication2.host[0].energyStorage residualEnergyCapacity:vector ETV
attr interpolationmode linear
attr source residualEnergyCapacityChanged
attr title "Residual energy capacity, vector"
vector 1 MysterioCommunication2.host[0].energyGenerator powerGeneration:vector ETV
attr interpolationmode sample-hold
attr source powerGenerationChanged
attr title "Power generation, vector"
vector 2 MysterioCommunication2.host[1].energyStorage residualEnergyCapacity:vector ETV
attr interpolationmode linear
attr source residualEnergyCapacityChanged
attr title "Residual energy capacity, vector"
vector 3 MysterioCommunication2.host[1].energyGenerator powerGeneration:vector ETV
attr interpolationmode sample-hold
attr source powerGenerationChanged
attr title "Power generation, vector"
vector 4 MysterioCommunication2.host[0].energyStorage powerGeneration:vector ETV
attr interpolationmode sample-hold
attr source powerGenerationChanged
attr title "Power generation, vector"
vector 5 MysterioCommunication2.host[1].energyStorage powerGeneration:vector ETV
attr interpolationmode sample-hold
attr source powerGenerationChanged
attr title "Power generation, vector"
0	0	0	0.05
0	0	0.1	0.05
0	2	0.142161157	0.05
0	3	0.2	0.05
0	5	0.3	0.05
0	7	0.4	0.05
0	9	0.5	0.05
0	10	0.597171439	0.05
0	11	0.6	0.05
0	13	0.7	0.05
0	15	0.8	0.05
0	17	0.9	0.05
0	19	1	0.05
0	21	1.1	0.05
0	23	1.2	0.05
0	24	1.285740445	0.05
0	25	1.3	0.05
0	27	1.4	0.05
0	29	1.5	0.05
0	30	1.570201081	0.05
0	31	1.6	0.05
0	33	1.7	0.05
0	35	1.8	0.05
0	37	1.9	0.05
0	39	2	0.05
0	40	2.033633755	0.05
0	41	2.1	0.05
0	43	2.2	0.05
0	44	2.246254066	0.05
0	45	2.3	0.05
0	47	2.4	0.05
0	49	2.5	0.05
0	50	2.53478278	0.05
0	51	2.6	0.05
0	53	2.7	0.05
0	55	2.8	0.05
0	56	2.811603343	0.05
0	57	2.9	0.05
0	59	3	0.05
0	60	3.096519619	0.05
0	61	3.1	0.05
0	63	3.2	0.05
0	65	3.3	0.05
0	67	3.4	0.05
0	69	3.5	0.05
0	70	3.52539598	0.05
0	71	3.6	0.05
0	73	3.7	0.05
0	75	3.8	0.05
0	77	3.9	0.05
0	78	3.987999016	0.05
0	79	4	0.05
0	81	4.1	0.05
0	83	4.2	0.05
0	84	4.204016116	0.05
0	85	4.3	0.05
0	87	4.4	0.05
0	88	4.441827724	0.05
0	89	4.5	0.05
0	91	4.6	0.05
0	93	4.7	0.05
0	95	4.8	0.05
0	97	4.9	0.05
0	98	4.938578164	0.05
0	99	5	0.05
0	101	5.1	0.05
0	103	5.2	0.05
0	104	5.2242232	0.05
0	105	5.3	0.05
0	107	5.4	0.05
0	109	5.5	0.05
0	111	5.6	0.05
0	112	5.691727417	0.05
0	113	5.7	0.05
0	115	5.8	0.05
0	117	5.9	0.05
0	119	6	0.05
0	121	6.1	0.05
0	122	6.148514263	0.05
0	123	6.2	0.05
0	125	6.3	0.05
0	127	6.4	0.05
0	128	6.428514907	0.05
0	129	6.5	0.05
0	131	6.6	0.05
0	133	6.7	0.05
0	135	6.8	0.05
0	137	6.9	0.05
0	138	6.925707952	0.05
0	139	7	0.05
0	141	7.1	0.05
0	143	7.2	0.05
0	145	7.3	0.05
0	146	7.390390357	0.05
0	147	7.4	0.05
0	149	7.5	0.05
0	151	7.6	0.05
0	152	7.624321726	0.05
0	153	7.7	0.05
0	155	7.8	0.05
0	156	7.866767551	0.05
0	157	7.9	0.05
0	159	8	0.05
0	161	8.1	0.05
0	162	8.140841926	0.05
0	163	8.2	0.05
0	165	8.3	0.05
0	167	8.4	0.05
0	169	8.5	0.05
0	170	8.579052082	0.05
0	171	8.6	0.05
0	173	8.7	0.05
0	175	8.8	0.05
0	177	8.9	0.05
0	179	9	0.05
0	180	9.079413031	0.05
0	181	9.1	0.05
0	183	9.2	0.05
0	185	9.3	0.05
0	187	9.4	0.05
0	189	9.5	0.05
0	190	9.571359622	0.05
0	191	9.6	0.05
0	193	9.7	0.05
0	195	9.8	0.05
0	196	9.850870786	0.05
0	197	9.9	0.05
0	199	10	0.05
0	201	10.1	0.05
0	203	10.2	0.05
0	204	10.266672043	0.05
0	205	10.3	0.05
0	207	10.4	0.05
0	209	10.5	0.05
0	211	10.6	0.05
0	212	10.685048263	0.05
0	213	10.7	0.05
0	215	10.8	0.05
0	217	10.9	0.05
0	219	11	0.05
0	221	11.1	0.05
0	223	11.2	0.05
0	224	11.283991285	0.05
0	225	11.3	0.05
0	227	11.4	0.05
0	229	11.5	0.05
0	230	11.538212689	0.05
0	231	11.6	0.05
0	233	11.7	0.05
0	235	11.8	0.05
0	237	11.9	0.05
0	238	11.980219162	0.05
0	239	12	0.05
0	241	12.1	0.05
0	243	12.2	0.05
0	245	12.3	0.05
0	247	12.4	0.05
0	248	12.447886393	0.05
0	249	12.5	0.05
0	251	12.6	0.05
0	253	12.7	0.05
0	255	12.8	0.05
0	257	12.9	0.05
0	259	13	0.05
0	261	13.1	0.05
0	263	13.2	0.05
0	264	13.228050838	0.05
0	265	13.3	0.05
0	267	13.4	0.05
0	269	13.5	0.05
0	271	13.6	0.05
0	273	13.7	0.05
0	275	13.8	0.05
0	276	13.868391499	0.05
0	277	13.9	0.05
0	279	14	0.05
0	281	14.1	0.05
0	283	14.2	0.05
0	285	14.3	0.05
0	286	14.345463751	0.05
0	287	14.4	0.05
0	289	14.5	0.05
0	291	14.6	0.05
0	293	14.7	0.05
0	295	14.8	0.05
0	296	14.896477123	0.05
0	297	14.9	0.05
0	299	15	0.05
0	301	15.1	0.05
0	303	15.2	0.05
0	305	15.3	0.05
0	306	15.381180874	0.05
0	307	15.4	0.05
0	309	15.5	0.05
0	311	15.6	0.05
0	313	15.7	0.05
0	314	15.792444454	0.05
0	315	15.8	0.05
0	317	15.9	0.05
0	319	16	0.05
0	321	16.1	0.05
0	323	16.2	0.05
0	325	16.3	0.05
0	327	16.4	0.05
0	328	16.428878098	0.05
0	329	16.5	0.05
0	331	16.6	0.05
0	333	16.7	0.05
0	335	16.8	0.05
0	337	16.9	0.05
0	338	16.917711613	0.05
0	339	17	0.05
0	341	17.1	0.05
0	343	17.2	0.05
0	345	17.3	0.05
0	346	17.390714077	0.05
0	347	17.4	0.05
0	349	17.5	0.05
0	351	17.6	0.05
0	353	17.7	0.05
0	355	17.8	0.05
0	357	17.9	0.05
0	359	18	0.05
0	360	18.088224379	0.05
0	361	18.1	0.05
0	363	18.2	0.05
0	365	18.3	0.05
0	367	18.4	0.05
0	369	18.5	0.05
0	370	18.543241891	0.05
0	371	18.6	0.05
0	373	18.7	0.05
0	375	18.8	0.05
0	377	18.9	0.05
0	378	18.984952639	0.05
0	379	19	0.05
0	381	19.1	0.05
0	383	19.2	0.05
0	384	19.252260052	0.05
0	385	19.3	0.05
0	387	19.4	0.05
0	389	19.5	0.05
0	391	19.6	0.05
0	392	19.664242381	0.05
0	393	19.7	0.05
0	395	19.8	0.05
0	397	19.9	0.05
0	398	19.947083788	0.05
0	399	20	0.05
0	401	20.1	0.05
0	403	20.2	0.05
0	405	20.3	0.05
0	407	20.4	0.05
0	408	20.422762864	0.05
0	409	20.5	0.05
0	411	20.6	0.05
0	413	20.7	0.05
0	415	20.8	0.05
0	416	20.887428394	0.05
0	417	20.9	0.05
0	419	21	0.05
0	421	21.1	0.05
0	422	21.18708214	0.05
0	423	21.2	0.05
0	425	21.3	0.05
0	427	21.4	0.05
0	429	21.5	0.05
0	430	21.596953402	0.05
0	431	21.6	0.05
0	433	21.7	0.05
0	435	21.8	0.05
0	437	21.9	0.05
0	439	22	0.05
0	440	22.086436465	0.05
0	441	22.1	0.05
0	443	22.2	0.05
0	445	22.3	0.05
0	446	22.376513428	0.05
0	447	22.4	0.05
0	449	22.5	0.05
0	451	22.6	0.05
0	453	22.7	0.05
0	455	22.8	0.05
0	456	22.89819052	0.05
0	457	22.9	0.05
0	459	23	0.05
0	461	23.08057828677	0.05
0	462	23.1	0.05
0	464	23.2	0.05
0	466	23.3	0.0495
0	466	23.3	0.0495
0	467	23.310208648	0.0495
0	468	23.367909541983	0.0495
0	469	23.4	0.049628361832068
0	471	23.492909541983	0.05
0	472	23.5	0.05
0	473	23.58319495	0.05
0	474	23.6	0.05
0	476	23.7	0.05
0	478	23.8	0.05
0	479	23.852158036	0.05
0	480	23.9	0.05
0	482	24	0.05
0	484	24.1	0.05
0	486	24.2	0.05
0	488	24.3	0.05
0	489	24.305550319	0.05
0	490	24.4	0.05
0	492	24.5	0.0495
0	492	24.5	0.0495
0	494	24.6	0.0499
0	496	24.7	0.05
0	497	24.783221482	0.05
0	498	24.8	0.05
0	500	24.9	0.05
0	502	25	0.05
0	504	25.1	0.05
0	505	25.196099098	0.05
0	506	25.2	0.05
0	508	25.3	0.05
0	510	25.4	0.05
0	512	25.5	0.05
0	514	25.6	0.05
0	515	25.649795338	0.05
0	516	25.7	0.05
0	518	25.8	0.05
0	520	25.9	0.0495
0	520	25.9	0.0495
0	522	26	0.0499
0	524	26.1	0.05
0	526	26.2	0.05
0	527	26.216062876	0.05
0	528	26.3	0.05
0	530	26.4	0.05
0	532	26.5	0.05
0	534	26.6	0.05
0	536	26.7	0.05
0	538	26.8	0.05
0	539	26.834309932	0.05
0	540	26.9	0.05
0	542	27	0.05
0	544	27.1	0.05
0	546	27.2	0.05
0	548	27.3	0.05
0	549	27.396700708	0.0495
0	549	27.396700708	0.0495
0	550	27.4	0.049513197168
0	552	27.5	0.049913197168
0	554	27.6	0.05
0	556	27.7	0.05
0	558	27.8	0.05
0	560	27.9	0.05
0	561	27.936558268	0.05
0	562	28	0.05
0	564	28.1	0.05
0	566	28.2	0.05
0	568	28.3	0.05
0	569	28.369898449	0.05
0	570	28.4	0.05
0	572	28.5	0.05
0	574	28.6	0.05
0	576	28.7	0.05
0	578	28.8	0.0495
0	578	28.8	0.0495
0	579	28.809967141	0.049539868564
0	580	28.9	0.0499
0	582	29	0.05
0	584	29.1	0.05
0	586	29.2	0.05
0	588	29.3	0.05
0	589	29.37874546	0.05
0	590	29.4	0.05
0	592	29.5	0.05
0	594	29.6	0.05
0	596	29.7	0.05
0	598	29.8	0.05
0	599	29.887935481	0.05
0	600	29.9	0.05
0	602	30	0.05
0	604	30.1	0.05
0	605	30.181816678	0.0495
0	605	30.181816678	0.0495
0	606	30.2	0.049572733288
0	608	30.3	0.049972733288
0	610	30.4	0.05
0	612	30.5	0.05
0	614	30.6	0.05
0	615	30.688378489	0.05
0	616	30.7	0.05
0	618	30.8	0.05
0	620	30.9	0.05
0	622	31	0.05
0	624	31.1	0.05
0	625	31.156567969	0.05
0	626	31.2	0.05
0	628	31.3	0.05
0	630	31.4	0.05
0	632	31.5	0.05
0	633	31.596863914	0.0495
0	633	31.596863914	0.0495
0	634	31.6	0.049512544344
0	636	31.7	0.049912544344
0	638	31.8	0.05
0	640	31.9	0.05
0	642	32	0.05
0	644	32.1	0.05
0	645	32.12464639	0.05
0	646	32.2	0.05
0	648	32.3	0.05
0	650	32.4	0.05
0	652	32.5	0.05
0	654	32.6	0.05
0	656	32.7	0.05
0	657	32.707789132	0.05
0	658	32.8	0.05
0	660	32.9	0.05
0	662	33	0.0495
0	662	33	0.0495
0	664	33.1	0.0499
0	666	33.2	0.05
0	668	33.3	0.05
0	669	33.313635634	0.05
0	670	33.4	0.05
0	672	33.5	0.05
0	674	33.6	0.05
0	675	33.604623637	0.05
0	676	33.7	0.05
0	678	33.8	0.05
0	680	33.9	0.05
0	682	34	0.05
0	683	34.018053268	0.05
0	684	34.1	0.05
0	686	34.2	0.05
0	688	34.3	0.05
0	690	34.4	0.0495
0	690	34.4	0.0495
0	691	34.45201099	0.04970804396
0	692	34.5	0.0499
0	694	34.6	0.05
0	696	34.7	0.05
0	697	34.751032861	0.05
0	698	34.8	0.05
0	700	34.9	0.05
0	702	35	0.05
0	704	35.1	0.05
0	706	35.2	0.05
0	708	35.3	0.05
0	709	35.35505224	0.05
0	710	35.4	0.05
0	712	35.5	0.05
0	714	35.6	0.05
0	715	35.642842846	0.05
0	716	35.7	0.0495
0	716	35.7	0.0495
0	718	35.8	0.0499
0	720	35.9	0.05
0	722	36	0.05
0	724	36.1	0.05
0	725	36.150992209	0.05
0	726	36.2	0.05
0	728	36.3	0.05
0	730	36.4	0.05
0	731	36.435068941	0.05
0	732	36.5	0.05
0	734	36.6	0.05
0	736	36.7	0.05
0	738	36.8	0.05
0	740	36.9	0.05
0	741	36.902036182	0.05
0	742	37	0.05
0	744	37.1	0.0495
0	744	37.1	0.0495
0	746	37.2	0.0499
0	748	37.3	0.05
0	749	37.36604797	0.05
0	750	37.4	0.05
0	752	37.5	0.05
0	754	37.6	0.05
0	756	37.7	0.05
0	758	37.8	0.05
0	759	37.810657951	0.05
0	760	37.9	0.05
0	762	38	0.05
0	763	38.032597414	0.05
0	764	38.1	0.05
0	766	38.2	0.05
0	768	38.3	0.05
0	770	38.4	0.05
0	772	38.5	0.0495
0	772	38.5	0.0495
0	773	38.502296821	0.049509187284
0	774	38.6	0.0499
0	776	38.7	0.05
0	778	38.8	0.05
0	779	38.801715652	0.05
0	780	38.9	0.05
0	782	39	0.05
0	783	39.085444237	0.05
0	784	39.1	0.05
0	786	39.2	0.05
0	788	39.3	0.05
0	789	39.378895102	0.05
0	790	39.4	0.05
0	792	39.5	0.05
0	794	39.6	0.05
0	795	39.668710108	0.05
0	796	39.7	0.0495
0	796	39.7	0.0495
0	798	39.8	0.0499
0	800	39.9	0.05
0	802	40	0.05
0	804	40.1	0.05
0	805	40.190658595	0.05
0	806	40.2	0.05
0	808	40.3	0.05
0	810	40.4	0.05
0	812	40.5	0.05
0	814	40.6	0.05
0	816	40.7	0.05
0	818	40.8	0.05
0	819	40.8502504	0.05
0	820	40.9	0.05
0	822	41	0.05
0	824	41.1	0.05
0	826	41.2	0.0495
0	826	41.2	0.0495
0	828	41.3	0.0499
0	830	41.4	0.05
0	831	41.462525599	0.05
0	832	41.5	0.05
0	834	41.6	0.05
0	836	41.7	0.05
0	838	41.8	0.05
0	840	41.9	0.05
0	842	42	0.05
0	844	42.1	0.05
0	845	42.198975427	0.05
0	846	42.2	0.05
0	848	42.3	0.05
0	850	42.4	0.05
0	852	42.5	0.05
0	854	42.6	0.05
0	856	42.7	0.0495
0	856	42.7	0.0495
0	858	42.8	0.0499
0	860	42.9	0.05
0	862	43	0.05
0	864	43.1	0.05
0	865	43.13040256	0.05
0	866	43.2	0.05
0	868	43.3	0.05
0	870	43.4	0.05
0	872	43.5	0.05
0	874	43.6	0.05
0	875	43.665098914	0.05
0	876	43.7	0.05
0	878	43.8	0.05
0	880	43.9	0.05
0	882	44	0.05
0	884	44.1	0.05
0	886	44.2	0.0495
0	886	44.2	0.0495
0	887	44.292177337	0.049868709348
0	888	44.3	0.0499
0	890	44.4	0.05
0	892	44.5	0.05
0	894	44.6	0.05
0	896	44.7	0.05
0	898	44.8	0.05
0	900	44.9	0.05
0	901	44.937742636	0.05
0	902	45	0.05
0	904	45.1	0.05
0	906	45.2	0.05
0	908	45.3	0.05
0	910	45.4	0.05
0	912	45.5	0.05
0	913	45.569234617	0.05
0	914	45.6	0.0495
0	914	45.6	0.0495
0	916	45.7	0.0499
0	918	45.8	0.05
0	920	45.9	0.05
0	922	46	0.05
0	924	46.1	0.05
0	926	46.2	0.05
0	927	46.202628157	0.05
0	928	46.3	0.05
0	930	46.4	0.05
0	932	46.5	0.05
0	934	46.6	0.05
0	936	46.7	0.05
0	938	46.8	0.05
0	939	46.803959227	0.05
0	940	46.9	0.05
0	943	47	0.05
0	945	47.1	0.05
0	947	47.2	0.05
0	949	47.3	0.05
0	950	47.395762054	0.05
0	951	47.4	0.05
0	953	47.5	0.05
0	955	47.6	0.05
0	957	47.7	0.05
0	959	47.8	0.05
0	961	47.9	0.05
0	962	47.91644974	0.05
0	963	48	0.05
0	965	48.1	0.05
0	967	48.2	0.05
0	969	48.3	0.05
0	970	48.36961279	0.05
0	971	48.4	0.05
0	973	48.5	0.05
0	975	48.6	0.05
0	977	48.7	0.05
0	979	48.8	0.05
0	980	48.88043365	0.05
0	981	48.9	0.05
0	983	49	0.05
0	985	49.1	0.05
0	987	49.2	0.05
0	989	49.3	0.05
0	991	49.4	0.05
0	992	49.481523013	0.05
0	993	49.5	0.05
0	995	49.6	0.05
0	997	49.7	0.05
0	999	49.8	0.05
0	1001	49.9	0.05
0	1002	49.940984074	0.05
0	1003	50	0.05
0	1005	50.1	0.05
0	1007	50.2	0.05
0	1009	50.3	0.05
0	1011	50.4	0.05
0	1012	50.468402566	0.05
0	1013	50.5	0.05
0	1015	50.6	0.05
0	1018	50.7	0.05
0	1020	50.8	0.05
0	1022	50.9	0.05
0	1022	50.938375393	0.05
0	1024	51	0.05
0	1026	51.1	0.05
0	1028	51.2	0.05
0	1030	51.3	0.0495
0	1030	51.3	0.0495
0	1032	51.4	0.0499
0	1032	51.467012185	0.05
0	1034	51.5	0.05
0	1036	51.6	0.05
0	1037	51.652378732094	0.05
0	1039	51.7	0.05
0	1041	51.8	0.05
0	1043	51.9	0.05
0	1045	52	0.05
0	1045	52.071778285	0.05
0	1047	52.1	0.05
0	1049	52.2	0.05
0	1051	52.3	0.05
0	1053	52.4	0.05
0	1055	52.5	0.05
0	1057	52.6	0.05
0	1059	52.7	0.05
0	1060	52.790931772	0.05
0	1061	52.8	0.05
0	1063	52.9	0.05
0	1065	53	0.05
0	1067	53.1	0.05
0	1069	53.2	0.05
0	1071	53.3	0.05
0	1072	53.392240393	0.05
0	1073	53.4	0.05
0	1075	53.5	0.05
0	1077	53.6	0.05
0	1079	53.7	0.05
0	1081	53.8	0.05
0	1083	53.9	0.05
0	1085	54	0.05
0	1085	54.002976826	0.05
0	1087	54.1	0.05
0	1089	54.2	0.05
0	1091	54.3	0.05
0	1093	54.4	0.05
0	1095	54.5	0.05
0	1095	54.507932506	0.05
0	1097	54.6	0.05
0	1099	54.7	0.05
0	1099	54.772577269	0.05
0	1101	54.8	0.05
0	1103	54.9	0.05
0	1105	55	0.05
0	1105	55.057347784	0.05
0	1107	55.1	0.05
0	1109	55.2	0.05
0	1111	55.3	0.05
0	1113	55.4	0.05
0	1115	55.5	0.05
0	1115	55.53938635	0.0495
0	1115	55.53938635	0.0495
0	1117	55.6	0.0495
0	1119	55.7	0.0495
0	1121	55.8	0.0495
0	1123	55.9	0.0495
0	1123	55.956223267	0.0495
0	1125	56	0.0495
0	1127	56.1	0.0495
0	1129	56.2	0.0495
0	1131	56.3	0.0495
0	1133	56.4	0.0495
0	1133	56.420497957	0.0495
0	1135	56.5	0.0495
0	1137	56.6	0.0495
0	1139	56.7	0.0495
0	1140	56.769634267061	0.0495
0	1141	56.86229359	0.0495
0	1142	56.869634267061	0.049005
0	1142	56.869634267061	0.049005
0	1144	56.969634267061	0.049005
0	1146	57.069634267061	0.049005
0	1148	57.169634267061	0.049005
0	1150	57.269634267061	0.049005
0	1151	57.36833683	0.049005
0	1152	57.369634267061	0.049005
0	1154	57.469634267061	0.049005
0	1156	57.569634267061	0.049005
0	1158	57.669634267061	0.049005
0	1160	57.769634267061	0.049005
0	1161	57.806600527	0.049005
0	1162	57.869634267061	0.049005
0	1164	57.969634267061	0.049005
0	1166	58.069634267061	0.049005
0	1168	58.169634267061	0.049005
0	1170	58.269634267061	0.049005
0	1170	58.28313913	0.049005
0	1172	58.369634267061	0.049005
0	1174	58.469634267061	0.049005
0	1176	58.569634267061	0.049005
0	1178	58.669634267061	0.049005
0	1179	58.71720634	0.049005
0	1180	58.769634267061	0.049005
0	1182	58.869634267061	0.049005
0	1184	58.969634267061	0.049005
0	1186	59.069634267061	0.049005
0	1188	59.169634267061	0.049005
0	1189	59.220570436	0.049005
0	1190	59.269634267061	0.049005
0	1192	59.369634267061	0.049005
0	1194	59.469634267061	0.049005
0	1196	59.569634267061	0.049005
0	1198	59.669634267061	0.049005
0	1198	59.672254435	0.049005
0	1200	59.769634267061	0.049005
0	1202	59.869634267061	0.049005
0	1204	59.969634267061	0.049005
0	1206	60.069634267061	0.049005
0	1207	60.120046192	0.049005
0	1208	60.169634267061	0.049005
0	1210	60.269634267061	0.049005
0	1212	60.369634267061	0.049005
0	1214	60.469634267061	0.049005
0	1215	60.558750403	0.049005
0	1216	60.569634267061	0.049005
0	1218	60.669634267061	0.049005
0	1220	60.769634267061	0.049005
0	1222	60.869634267061	0.049005
0	1224	60.969634267061	0.049005
0	1225	61.052878045	0.049005
0	1226	61.069634267061	0.04851495
0	1226	61.069634267061	0.04851495
0	1228	61.169634267061	0.04851495
0	1230	61.269634267061	0.04851495
0	1231	61.341527071	0.04851495
0	1232	61.369634267061	0.04851495
0	1234	61.469634267061	0.04851495
0	1236	61.569634267061	0.04851495
0	1238	61.669634267061	0.04851495
0	1240	61.769634267061	0.04851495
0	1241	61.801836874	0.04851495
0	1242	61.869634267061	0.04851495
0	1244	61.969634267061	0.04851495
0	1246	62.069634267061	0.04851495
0	1247	62.094879322	0.04851495
0	1248	62.169634267061	0.04851495
0	1250	62.269634267061	0.04851495
0	1252	62.369634267061	0.04851495
0	1254	62.469634267061	0.0480298005
0	1254	62.469634267061	0.0480298005
0	1256	62.569634267061	0.0480298005
0	1257	62.638411654	0.0480298005
0	1258	62.669634267061	0.0480298005
0	1260	62.769634267061	0.0480298005
0	1262	62.869634267061	0.0480298005
0	1264	62.969634267061	0.0480298005
0	1266	63.069634267061	0.0480298005
0	1268	63.169634267061	0.0480298005
0	1270	63.269634267061	0.0480298005
0	1270	63.280671355	0.0480298005
0	1272	63.369634267061	0.0480298005
0	1274	63.469634267061	0.0480298005
0	1276	63.569634267061	0.0480298005
0	1278	63.669634267061	0.0480298005
0	1280	63.769634267061	0.0480298005
0	1282	63.869634267061	0.0480298005
0	1282	63.872447557	0.0480298005
0	1284	63.969634267061	0.0480298005
0	1286	64.069634267061	0.0480298005
0	1288	64.169634267061	0.0480298005
0	1290	64.269634267061	0.0480298005
0	1292	64.369634267061	0.0480298005
0	1293	64.404238624	0.0480298005
0	1294	64.469634267061	0.0480298005
0	1296	64.569634267061	0.0480298005
0	1298	64.669634267061	0.0480298005
0	1300	64.769634267061	0.0480298005
0	1302	64.869634267061	0.0480298005
0	1303	64.915337965	0.0480298005
0	1304	64.969634267061	0.0480298005
0	1306	65.069634267061	0.0480298005
0	1308	65.169634267061	0.0480298005
0	1310	65.269634267061	0.0480298005
0	1311	65.309057005	0.047549502495
0	1311	65.309057005	0.047549502495
0	1312	65.369634267061	0.047549502495
0	1314	65.469634267061	0.047549502495
0	1316	65.569634267061	0.047549502495
0	1317	65.588545747	0.047549502495
0	1318	65.669634267061	0.047549502495
0	1320	65.769634267061	0.047549502495
0	1322	65.869634267061	0.047549502495
0	1324	65.969634267061	0.047549502495
0	1325	66.059628487	0.047549502495
0	1326	66.069634267061	0.047549502495
0	1328	66.169634267061	0.047549502495
0	1330	66.269634267061	0.047549502495
0	1332	66.369634267061	0.047549502495
0	1334	66.469634267061	0.047549502495
0	1336	66.569634267061	0.047549502495
0	1337	66.599189056	0.047549502495
0	1338	66.669634267061	0.04707400747005
0	1338	66.669634267061	0.04707400747005
0	1340	66.769634267061	0.04707400747005
0	1342	66.869634267061	0.04707400747005
0	1344	66.969634267061	0.04707400747005
0	1346	67.069634267061	0.04707400747005
0	1347	67.08538621	0.04707400747005
0	1348	67.169634267061	0.04707400747005
0	1350	67.269634267061	0.04707400747005
0	1352	67.369634267061	0.04707400747005
0	1354	67.469634267061	0.04707400747005
0	1356	67.569634267061	0.04707400747005
0	1356	67.580937442	0.04707400747005
0	1358	67.669634267061	0.04707400747005
0	1359	67.675264311995	0.04707400747005
0	1361	67.769634267061	0.047451487290314
0	1362	67.781762444482	0.0475
0	1364	67.869634267061	0.047851487290316
0	1366	67.906762444482	0.048
0	1367	67.969634267061	0.048251487290316
0	1369	68.031762444482	0.0485
0	1370	68.069634267061	0.048651487290316
0	1371	68.088727483	0.048727860154072
0	1372	68.156762444482	0.049
0	1373	68.169634267061	0.049051487290316
0	1375	68.269634267061	0.049451487290316
0	1376	68.281762444482	0.0495
0	1378	68.369634267061	0.049851487290316
0	1380	68.406762444482	0.05
0	1381	68.469634267061	0.05
0	1383	68.569634267061	0.05
0	1384	68.629026967	0.05
0	1385	68.669634267061	0.05
0	1387	68.769634267061	0.05
0	1389	68.869634267061	0.05
0	1391	68.969634267061	0.05
0	1393	69.069634267061	0.05
0	1395	69.169634267061	0.05
0	1396	69.200264386	0.05
0	1397	69.269634267061	0.05
0	1399	69.369634267061	0.05
0	1401	69.469634267061	0.05
0	1403	69.569634267061	0.05
0	1405	69.669634267061	0.05
0	1406	69.699459487	0.05
0	1407	69.769634267061	0.05
0	1409	69.869634267061	0.05
0	1411	69.969634267061	0.05
0	1413	70.069634267061	0.05
0	1414	70.141197769	0.05
0	1415	70.169634267061	0.05
0	1417	70.269634267061	0.05
0	1419	70.369634267061	0.05
0	1421	70.469634267061	0.05
0	1422	70.551034507	0.05
0	1423	70.569634267061	0.05
0	1425	70.669634267061	0.05
0	1427	70.769634267061	0.05
0	1429	70.869634267061	0.05
0	1431	70.969634267061	0.05
0	1432	71.059030573	0.05
0	1433	71.069634267061	0.05
0	1435	71.169634267061	0.05
0	1437	71.269634267061	0.05
0	1439	71.369634267061	0.05
0	1441	71.469634267061	0.05
0	1442	71.556392125	0.05
0	1443	71.569634267061	0.05
0	1445	71.669634267061	0.05
0	1447	71.769634267061	0.05
0	1449	71.869634267061	0.05
0	1451	71.93469827915	0.05
0	1452	71.969634267061	0.05
0	1454	72.069634267061	0.0495
0	1454	72.069634267061	0.0495
0	1455	72.106958611	0.0495
0	1456	72.169634267061	0.0495
0	1458	72.269634267061	0.0495
0	1460	72.369634267061	0.0495
0	1462	72.469634267061	0.0495
0	1463	72.560084107	0.0495
0	1464	72.569634267061	0.0495
0	1466	72.669634267061	0.0495
0	1468	72.769634267061	0.0495
0	1470	72.869634267061	0.0495
0	1472	72.969634267061	0.0495
0	1474	73.069634267061	0.0495
0	1476	73.169634267061	0.0495
0	1476	73.170744217	0.0495
0	1478	73.269634267061	0.0495
0	1480	73.369634267061	0.0495
0	1482	73.469634267061	0.049005
0	1482	73.469634267061	0.049005
0	1484	73.569634267061	0.049005
0	1486	73.669634267061	0.049005
0	1487	73.686113308	0.049005
0	1488	73.769634267061	0.049005
0	1490	73.869634267061	0.049005
0	1492	73.969634267061	0.049005
0	1494	74.069634267061	0.049005
0	1495	74.144264461	0.049005
0	1496	74.169634267061	0.049005
0	1498	74.269634267061	0.049005
0	1500	74.369634267061	0.049005
0	1502	74.469634267061	0.049005
0	1504	74.569634267061	0.049005
0	1505	74.642913733	0.049005
0	1506	74.669634267061	0.049005
0	1508	74.769634267061	0.049005
0	1510	74.869634267061	0.04851495
0	1510	74.869634267061	0.04851495
0	1512	74.969634267061	0.04851495
0	1514	75.069634267061	0.04851495
0	1516	75.169634267061	0.04851495
0	1517	75.266331274	0.04851495
0	1518	75.269634267061	0.04851495
0	1520	75.369634267061	0.04851495
0	1522	75.469634267061	0.04851495
0	1524	75.569634267061	0.04851495
0	1526	75.669634267061	0.04851495
0	1528	75.769634267061	0.04851495
0	1529	75.828811447	0.04851495
0	1530	75.869634267061	0.04851495
0	1532	75.969634267061	0.04851495
0	1534	76.069634267061	0.04851495
0	1536	76.169634267061	0.04851495
0	1538	76.269634267061	0.04851495
0	1540	76.369634267061	0.0480298005
0	1540	76.369634267061	0.0480298005
0	1541	76.435256785	0.0480298005
0	1542	76.469634267061	0.0480298005
0	1544	76.569634267061	0.0480298005
0	1546	76.669634267061	0.0480298005
0	1548	76.769634267061	0.0480298005
0	1550	76.869634267061	0.0480298005
0	1552	76.969634267061	0.0480298005
0	1553	77.033475541	0.0480298005
0	1554	77.069634267061	0.0480298005
0	1556	77.169634267061	0.0480298005
0	1558	77.269634267061	0.0480298005
0	1560	77.369634267061	0.0480298005
0	1562	77.469634267061	0.0480298005
0	1564	77.569634267061	0.0480298005
0	1564	77.579402674	0.0480298005
0	1566	77.669634267061	0.0480298005
0	1568	77.769634267061	0.047549502495
0	1568	77.769634267061	0.047549502495
0	1570	77.869634267061	0.047549502495
0	1572	77.969634267061	0.047549502495
0	1573	78.027267781	0.047549502495
0	1574	78.069634267061	0.047549502495
0	1576	78.169634267061	0.047549502495
0	1578	78.269634267061	0.047549502495
0	1580	78.369634267061	0.047549502495
0	1582	78.469634267061	0.047549502495
0	1584	78.569634267061	0.047549502495
0	1584	78.578206843	0.047549502495
0	1586	78.669634267061	0.047549502495
0	1588	78.769634267061	0.047549502495
0	1590	78.869634267061	0.047549502495
0	1592	78.969634267061	0.047549502495
0	1594	79.069634267061	0.047549502495
0	1596	79.169634267061	0.047549502495
0	1597	79.266609541	0.04707400747005
0	1597	79.266609541	0.04707400747005
0	1598	79.269634267061	0.04707400747005
0	1600	79.369634267061	0.04707400747005
0	1602	79.469634267061	0.04707400747005
0	1604	79.569634267061	0.04707400747005
0	1606	79.669634267061	0.04707400747005
0	1608	79.769634267061	0.04707400747005
0	1609	79.836504673	0.04707400747005
0	1610	79.869634267061	0.04707400747005
0	1612	79.969634267061	0.04707400747005
0	1614	80.069634267061	0.04707400747005
0	1616	80.169634267061	0.04707400747005
0	1618	80.269634267061	0.04707400747005
0	1620	80.369634267061	0.04707400747005
0	1622	80.469634267061	0.04707400747005
0	1622	80.473222357	0.04707400747005
0	1624	80.569634267061	0.04707400747005
0	1626	80.669634267061	0.04660326739535
0	1626	80.669634267061	0.04660326739535
0	1628	80.769634267061	0.04660326739535
0	1630	80.869634267061	0.04660326739535
0	1632	80.969634267061	0.04660326739535
0	1634	81.069634267061	0.04660326739535
0	1634	81.074361646	0.04660326739535
0	1636	81.169634267061	0.04660326739535
0	1638	81.269634267061	0.04660326739535
0	1640	81.369634267061	0.04660326739535
0	1642	81.469634267061	0.04660326739535
0	1644	81.569634267061	0.04660326739535
0	1646	81.669634267061	0.04660326739535
0	1647	81.758355844	0.04660326739535
0	1648	81.769634267061	0.04660326739535
0	1650	81.869634267061	0.04660326739535
0	1652	81.969634267061	0.04660326739535
0	1654	82.069634267061	0.04660326739535
0	1656	82.169634267061	0.046137234721396
0	1656	82.169634267061	0.046137234721396
0	1658	82.269634267061	0.046137234721396
0	1659	82.352154646	0.046137234721396
0	1660	82.369634267061	0.046137234721396
0	1662	82.469634267061	0.046137234721396
0	1664	82.569634267061	0.046137234721396
0	1666	82.669634267061	0.046137234721396
0	1668	82.769634267061	0.046137234721396
0	1670	82.869634267061	0.046137234721396
0	1671	82.928401663	0.046137234721396
0	1672	82.969634267061	0.046137234721396
0	1674	83.069634267061	0.046137234721396
0	1676	83.169634267061	0.046137234721396
0	1678	83.269634267061	0.046137234721396
0	1680	83.369634267061	0.046137234721396
0	1681	83.404507564	0.046137234721396
0	1682	83.469634267061	0.046137234721396
0	1684	83.569634267061	0.045675862374182
0	1684	83.569634267061	0.045675862374182
0	1686	83.669634267061	0.045675862374182
0	1688	83.769634267061	0.045675862374182
0	1690	83.869634267061	0.045675862374182
0	1691	83.904393976	0.045675862374182
0	1692	83.969634267061	0.045675862374182
0	1694	84.069634267061	0.045675862374182
0	1696	84.169634267061	0.045675862374182
0	1698	84.269634267061	0.045675862374182
0	1699	84.313587406	0.045675862374182
0	1700	84.369634267061	0.045675862374182
0	1702	84.469634267061	0.045675862374182
0	1704	84.569634267061	0.045675862374182
0	1706	84.669634267061	0.045675862374182
0	1708	84.769634267061	0.045675862374182
0	1709	84.797950582	0.045675862374182
0	1710	84.869634267061	0.045675862374182
0	1712	84.969634267061	0.04521910375044
0	1712	84.969634267061	0.04521910375044
0	1714	85.069634267061	0.04521910375044
0	1716	85.169634267061	0.04521910375044
0	1718	85.269634267061	0.04521910375044
0	1719	85.291842091	0.04521910375044
0	1720	85.369634267061	0.04521910375044
0	1722	85.469634267061	0.04521910375044
0	1724	85.569634267061	0.04521910375044
0	1726	85.669634267061	0.04521910375044
0	1727	85.766812663	0.04521910375044
0	1728	85.769634267061	0.04521910375044
0	1730	85.869634267061	0.04521910375044
0	1732	85.969634267061	0.04521910375044
0	1734	86.069634267061	0.04521910375044
0	1736	86.169634267061	0.04521910375044
0	1737	86.236360171	0.04521910375044
0	1738	86.269634267061	0.04521910375044
0	1740	86.369634267061	0.044766912712936
0	1740	86.369634267061	0.044766912712936
0	1742	86.469634267061	0.044766912712936
0	1744	86.569634267061	0.044766912712936
0	1746	86.669634267061	0.044766912712936
0	1747	86.693112925	0.044766912712936
0	1748	86.769634267061	0.044766912712936
0	1750	86.869634267061	0.044766912712936
0	1751	86.941584052	0.044766912712936
0	1752	86.969634267061	0.044766912712936
0	1754	87.069634267061	0.044766912712936
0	1756	87.169634267061	0.044766912712936
0	1758	87.269634267061	0.044766912712936
0	1760	87.369634267061	0.044766912712936
0	1762	87.469634267061	0.044766912712936
0	1762	87.480209512	0.044766912712936
0	1764	87.569634267061	0.044766912712936
0	1766	87.669634267061	0.044766912712936
0	1768	87.769634267061	0.044319243585806
0	1768	87.769634267061	0.044319243585806
0	1770	87.869634267061	0.044319243585806
0	1772	87.969634267061	0.044319243585806
0	1773	88.060121329	0.044319243585806
0	1774	88.069634267061	0.044319243585806
0	1776	88.169634267061	0.044319243585806
0	1778	88.269634267061	0.044319243585806
0	1780	88.369634267061	0.044319243585806
0	1782	88.469634267061	0.044319243585806
0	1784	88.569634267061	0.044319243585806
0	1785	88.614603067	0.044319243585806
0	1786	88.669634267061	0.044319243585806
0	1788	88.769634267061	0.044319243585806
0	1790	88.869634267061	0.044319243585806
0	1792	88.969634267061	0.044319243585806
0	1794	89.069634267061	0.044319243585806
0	1795	89.11552285	0.044319243585806
0	1796	89.169634267061	0.043876051149948
0	1796	89.169634267061	0.043876051149948
0	1798	89.269634267061	0.043876051149948
0	1800	89.369634267061	0.043876051149948
0	1802	89.469634267061	0.043876051149948
0	1803	89.551441195	0.043876051149948
0	1804	89.569634267061	0.043876051149948
0	1806	89.669634267061	0.043876051149948
0	1808	89.769634267061	0.043876051149948
0	1810	89.869634267061	0.043876051149948
0	1812	89.969634267061	0.043876051149948
0	1814	90.069634267061	0.043876051149948
0	1815	90.121000243	0.043876051149948
0	1816	90.169634267061	0.043876051149948
0	1818	90.269634267061	0.043876051149948
0	1820	90.369634267061	0.043876051149948
0	1822	90.469634267061	0.043876051149948
0	1824	90.569634267061	0.043876051149948
0	1825	90.617704939	0.043437290638449
0	1825	90.617704939	0.043437290638449
0	1826	90.669634267061	0.043437290638449
0	1828	90.769634267061	0.043437290638449
0	1830	90.869634267061	0.043437290638449
0	1832	90.969634267061	0.043437290638449
0	1833	90.99381484	0.043437290638449
0	1834	91.069634267061	0.043437290638449
0	1836	91.169634267061	0.043437290638449
0	1837	91.233766351	0.043437290638449
0	1838	91.269634267061	0.043437290638449
0	1840	91.369634267061	0.043437290638449
0	1842	91.469634267061	0.043437290638449
0	1844	91.569634267061	0.043437290638449
0	1846	91.669634267061	0.043437290638449
0	1846	91.683218086	0.043437290638449
0	1848	91.769634267061	0.043437290638449
0	1850	91.869634267061	0.043437290638449
0	1852	91.969634267061	0.043002917732064
0	1852	91.969634267061	0.043002917732064
0	1854	92.069634267061	0.043002917732064
0	1856	92.169634267061	0.043002917732064
0	1857	92.209460779	0.043002917732064
0	1858	92.269634267061	0.043002917732064
0	1860	92.369634267061	0.043002917732064
0	1862	92.469634267061	0.043002917732064
0	1864	92.569634267061	0.043002917732064
0	1866	92.669634267061	0.043002917732064
0	1867	92.708256178	0.043002917732064
0	1868	92.769634267061	0.043002917732064
0	1870	92.869634267061	0.043002917732064
0	1872	92.969634267061	0.043002917732064
0	1874	93.069634267061	0.043002917732064
0	1876	93.169634267061	0.043002917732064
0	1878	93.269634267061	0.043002917732064
0	1879	93.313202761	0.043002917732064
0	1880	93.357775816287	0.042572888554744
0	1880	93.357775816287	0.042572888554744
0	1881	93.369634267061	0.04262032235784
0	1883	93.464553677601	0.043
0	1884	93.469634267061	0.04302032235784
0	1886	93.569634267061	0.04342032235784
0	1888	93.589553677601	0.0435
0	1889	93.669634267061	0.04382032235784
0	1891	93.714553677601	0.044
0	1891	93.743952298	0.044117594481596
0	1892	93.769634267061	0.04422032235784
0	1894	93.839553677601	0.0445
0	1895	93.869634267061	0.04462032235784
0	1897	93.964553677601	0.045
0	1898	93.969634267061	0.04502032235784
0	1900	94.069634267061	0.04542032235784
0	1902	94.089553677601	0.0455
0	1903	94.169634267061	0.04582032235784
0	1904	94.193620615	0.045916267749596
0	1905	94.214553677601	0.046
0	1906	94.269634267061	0.04622032235784
0	1908	94.339553677601	0.0465
0	1909	94.369634267061	0.04662032235784
0	1911	94.464553677601	0.047
0	1912	94.469634267061	0.04702032235784
0	1914	94.569634267061	0.04742032235784
0	1916	94.589553677601	0.0475
0	1917	94.669634267061	0.04782032235784
0	1919	94.714553677601	0.048
0	1919	94.723134502	0.048034323297596
0	1920	94.769634267061	0.04822032235784
0	1922	94.839553677601	0.0485
0	1923	94.869634267061	0.04862032235784
0	1925	94.964553677601	0.049
0	1926	94.969634267061	0.04902032235784
0	1927	95.019135991	0.049218329253596
0	1928	95.069634267061	0.04942032235784
0	1930	95.089553677601	0.0495
0	1931	95.169634267061	0.04982032235784
0	1933	95.214553677601	0.05
0	1934	95.269634267061	0.05
0	1936	95.369634267061	0.05
0	1938	95.469634267061	0.05
0	1939	95.504318848	0.0495
0	1939	95.504318848	0.0495
0	1940	95.569634267061	0.049761261676244
0	1942	95.669634267061	0.05
0	1944	95.769634267061	0.05
0	1946	95.869634267061	0.05
0	1948	95.969634267061	0.05
0	1949	96.068870113	0.05
0	1950	96.069634267061	0.05
0	1952	96.169634267061	0.05
0	1954	96.269634267061	0.05
0	1956	96.369634267061	0.05
0	1958	96.469634267061	0.05
0	1960	96.569634267061	0.05
0	1961	96.645088255	0.05
0	1962	96.669634267061	0.05
0	1964	96.769634267061	0.05
0	1966	96.869634267061	0.05
0	1968	96.969634267061	0.0495
0	1968	96.969634267061	0.0495
0	1970	97.069634267061	0.0499
0	1972	97.169634267061	0.05
0	1973	97.221521395	0.05
0	1974	97.269634267061	0.05
0	1976	97.369634267061	0.05
0	1978	97.469634267061	0.05
0	1980	97.569634267061	0.05
0	1981	97.667520367	0.05
0	1982	97.669634267061	0.05
0	1984	97.769634267061	0.05
0	1986	97.869634267061	0.05
0	1987	97.917176548	0.05
0	1988	97.969634267061	0.05
0	1990	98.069634267061	0.05
0	1992	98.169634267061	0.05
0	1993	98.210147887	0.05
0	1994	98.269634267061	0.0495
0	1994	98.269634267061	0.0495
0	1996	98.369634267061	0.0499
0	1998	98.469634267061	0.05
0	2000	98.569634267061	0.05
0	2002	98.669634267061	0.05
0	2003	98.736560935	0.05
0	2004	98.769634267061	0.05
0	2006	98.869634267061	0.05
0	2008	98.969634267061	0.05
0	2010	99.069634267061	0.05
0	2012	99.169634267061	0.05
0	2014	99.269634267061	0.05
0	2015	99.299868835	0.05
0	2016	99.369634267061	0.05
0	2018	99.469634267061	0.05
0	2020	99.569634267061	0.05
0	2022	99.669634267061	0.05
0	2024	99.769634267061	0.0495
0	2024	99.769634267061	0.0495
0	2025	99.793579153	0.049595779543756
0	2026	99.869634267061	0.0499
0	2028	99.969634267061	0.05
0	2030	100.069634267061	0.05
0	2032	100.169634267061	0.05
0	2033	100.242314383	0.05
0	2034	100.269634267061	0.05
0	2036	100.369634267061	0.05
0	2038	100.469634267061	0.05
0	2040	100.569634267061	0.05
0	2042	100.669634267061	0.05
0	2043	100.690147864	0.05
0	2044	100.769634267061	0.05
0	2046	100.869634267061	0.05
0	2049	100.969634267061	0.05
0	2051	101.069634267061	0.05
0	2053	101.169634267061	0.05
0	2054	101.234285986	0.05
0	2055	101.269634267061	0.05
0	2057	101.369634267061	0.05
0	2059	101.469634267061	0.05
0	2061	101.569634267061	0.05
0	2063	101.669634267061	0.05
0	2064	101.705524648	0.05
0	2065	101.769634267061	0.05
0	2067	101.869634267061	0.05
0	2069	101.969634267061	0.05
0	2071	102.069634267061	0.05
0	2073	102.169634267061	0.05
0	2074	102.253048852	0.05
0	2075	102.269634267061	0.05
0	2077	102.369634267061	0.05
0	2079	102.469634267061	0.05
0	2081	102.569634267061	0.05
0	2083	102.669634267061	0.05
0	2085	102.769634267061	0.05
0	2087	102.869634267061	0.05
0	2087	102.884600263	0.05
0	2089	102.969634267061	0.05
0	2091	103.069634267061	0.05
0	2093	103.169634267061	0.05
0	2095	103.269634267061	0.05
0	2096	103.337417995	0.05
0	2097	103.369634267061	0.05
0	2099	103.469634267061	0.05
0	2101	103.569634267061	0.05
0	2103	103.669634267061	0.05
0	2105	103.769634267061	0.05
0	2106	103.856171113	0.05
0	2107	103.869634267061	0.05
0	2109	103.969634267061	0.05
0	2111	104.069634267061	0.05
0	2113	104.169634267061	0.05
0	2115	104.269634267061	0.05
0	2116	104.357980153	0.05
0	2117	104.369634267061	0.05
0	2119	104.469634267061	0.05
0	2121	104.569634267061	0.05
0	2121	104.599946113	0.05
0	2123	104.669634267061	0.05
0	2125	104.769634267061	0.05
0	2127	104.869634267061	0.05
0	2129	104.969634267061	0.05
0	2130	104.975284897127	0.05
0	2132	105.075284897127	0.05
0	2133	105.150143089	0.05
0	2134	105.175284897127	0.05
0	2136	105.275284897127	0.0495
0	2136	105.275284897127	0.0495
0	2138	105.375284897127	0.0499
0	2140	105.475284897127	0.05
0	2142	105.575284897127	0.05
0	2144	105.675284897127	0.05
0	2146	105.775284897127	0.05
0	2146	105.797703643	0.05
0	2148	105.875284897127	0.05
0	2151	105.975284897127	0.05
0	2153	106.075284897127	0.05
0	2155	106.175284897127	0.05
0	2157	106.275284897127	0.05
0	2159	106.375284897127	0.05
0	2159	106.414769305	0.05
0	2161	106.475284897127	0.05
0	2163	106.575284897127	0.05
0	2165	106.675284897127	0.05
0	2167	106.775284897127	0.05
0	2169	106.875284897127	0.05
0	2171	106.975284897127	0.05
0	2171	106.993492984	0.05
0	2173	107.075284897127	0.05
0	2175	107.175284897127	0.05
0	2177	107.275284897127	0.05
0	2179	107.375284897127	0.05
0	2181	107.475284897127	0.05
0	2182	107.562772096	0.05
0	2183	107.575284897127	0.05
0	2185	107.675284897127	0.05
0	2187	107.775284897127	0.05
0	2189	107.875284897127	0.05
0	2191	107.975284897127	0.05
0	2192	108.044960674	0.05
0	2193	108.075284897127	0.05
0	2195	108.175284897127	0.05
0	2197	108.275284897127	0.05
0	2199	108.375284897127	0.05
0	2201	108.475284897127	0.05
0	2201	108.493416604	0.05
0	2203	108.575284897127	0.05
0	2205	108.675284897127	0.05
0	2207	108.775284897127	0.05
0	2209	108.875284897127	0.05
0	2209	108.898098064	0.05
0	2211	108.975284897127	0.05
0	2213	109.075284897127	0.05
0	2215	109.175284897127	0.05
0	2217	109.275284897127	0.05
0	2218	109.34649697	0.05
0	2219	109.375284897127	0.05
0	2221	109.475284897127	0.05
0	2223	109.575284897127	0.05
0	2223	109.588156606	0.05
0	2225	109.675284897127	0.05
0	2227	109.775284897127	0.05
0	2229	109.875284897127	0.05
0	2229	109.888495165	0.05
0	2231	109.975284897127	0.05
0	2233	110.075284897127	0.05
0	2235	110.175284897127	0.05
0	2237	110.275284897127	0.05
0	2238	110.34254446	0.05
0	2239	110.375284897127	0.05
0	2241	110.475284897127	0.05
0	2243	110.575284897127	0.05
0	2245	110.675284897127	0.05
0	2247	110.775284897127	0.05
0	2248	110.862979426	0.05
0	2249	110.875284897127	0.05
0	2251	110.975284897127	0.05
0	2253	111.075284897127	0.05
0	2255	111.175284897127	0.05
0	2257	111.275284897127	0.05
0	2257	111.326470474	0.05
0	2259	111.375284897127	0.05
0	2261	111.475284897127	0.05
0	2263	111.575284897127	0.05
0	2265	111.675284897127	0.05
0	2266	111.763581655	0.05
0	2267	111.775284897127	0.05
0	2269	111.875284897127	0.05
0	2271	111.975284897127	0.05
0	2273	112.075284897127	0.05
0	2275	112.175284897127	0.05
0	2277	112.275284897127	0.05
0	2278	112.352648875	0.05
0	2279	112.375284897127	0.05
0	2281	112.475284897127	0.05
0	2283	112.575284897127	0.05
0	2285	112.675284897127	0.05
0	2287	112.775284897127	0.05
0	2288	112.833137629	0.05
0	2289	112.875284897127	0.05
0	2291	112.975284897127	0.05
0	2293	113.075284897127	0.05
0	2295	113.175284897127	0.05
0	2297	113.275284897127	0.05
0	2299	113.375284897127	0.05
0	2299	113.38864804	0.05
0	2301	113.475284897127	0.05
0	2303	113.575284897127	0.05
0	2305	113.675284897127	0.05
0	2307	113.775284897127	0.05
0	2309	113.84771365113	0.05
0	2309	113.899017445	0.05
0	2311	113.94771365113	0.05
0	2313	114.04771365113	0.05
0	2315	114.14771365113	0.05
0	2317	114.24771365113	0.05
0	2319	114.34771365113	0.05
0	2321	114.44771365113	0.05
0	2321	114.456127972	0.05
0	2323	114.54771365113	0.05
0	2325	114.64771365113	0.05
0	2327	114.74771365113	0.05
0	2329	114.84771365113	0.05
0	2330	114.913108459	0.05
0	2331	114.94771365113	0.05
0	2333	115.04771365113	0.05
0	2335	115.14771365113	0.05
0	2337	115.24771365113	0.05
0	2339	115.34771365113	0.05
0	2341	115.44771365113	0.05
0	2342	115.506762757	0.05
0	2343	115.54771365113	0.05
0	2345	115.64771365113	0.05
0	2347	115.74771365113	0.05
0	2349	115.84771365113	0.05
0	2351	115.94771365113	0.05
0	2352	116.039270578	0.05
0	2353	116.04771365113	0.05
0	2355	116.14771365113	0.05
0	2357	116.24771365113	0.05
0	2359	116.34771365113	0.05
0	2361	116.44771365113	0.05
0	2363	116.54771365113	0.05
0	2364	116.623830718	0.05
0	2365	116.64771365113	0.05
0	2367	116.74771365113	0.05
0	2369	116.84771365113	0.05
0	2371	116.94771365113	0.05
0	2373	117.04771365113	0.05
0	2375	117.14771365113	0.05
0	2376	117.242104366	0.05
0	2377	117.24771365113	0.05
0	2379	117.34771365113	0.05
0	2381	117.44771365113	0.05
0	2382	117.533937709	0.05
0	2383	117.54771365113	0.05
0	2385	117.64771365113	0.05
0	2387	117.74771365113	0.05
0	2389	117.84771365113	0.05
0	2391	117.94771365113	0.05
0	2391	117.992053837	0.0495
0	2391	117.992053837	0.0495
0	2393	118.04771365113	0.04972263925652
0	2395	118.14771365113	0.05
0	2397	118.24771365113	0.05
0	2399	118.34771365113	0.05
0	2401	118.44771365113	0.05
0	2401	118.472828206	0.05
0	2403	118.54771365113	0.05
0	2405	118.64771365113	0.05
0	2407	118.74771365113	0.05
0	2409	118.84771365113	0.05
0	2411	118.94771365113	0.05
0	2411	118.952044453	0.05
0	2413	119.04771365113	0.05
0	2415	119.14771365113	0.05
0	2417	119.24771365113	0.05
0	2419	119.34771365113	0.05
0	2419	119.376397009	0.0495
0	2419	119.376397009	0.0495
0	2421	119.44771365113	0.04978526656852
0	2423	119.54771365113	0.05
0	2425	119.64771365113	0.05
0	2427	119.74771365113	0.05
0	2428	119.812693828	0.05
0	2429	119.84771365113	0.05
0	2431	119.9296130815	0.05
0	2433	120.0296130815	0.05
0	2435	120.1296130815	0.05
0	2437	120.2296130815	0.05
0	2439	120.3296130815	0.05
0	2439	120.334627354	0.05
0	2441	120.4296130815	0.05
0	2443	120.5296130815	0.05
0	2445	120.6296130815	0.05
0	2447	120.7296130815	0.05
0	2449	120.8296130815	0.05
0	2449	120.852031903	0.05
0	2451	120.9296130815	0.05
0	2453	121.0296130815	0.05
0	2454	121.083347554	0.05
0	2455	121.1296130815	0.05
0	2457	121.2296130815	0.05
0	2459	121.3296130815	0.05
0	2461	121.4296130815	0.05
0	2463	121.5296130815	0.05
0	2464	121.626676255	0.05
0	2465	121.6296130815	0.05
0	2467	121.7296130815	0.05
0	2469	121.8296130815	0.05
0	2471	121.9296130815	0.05
0	2473	122.0296130815	0.05
0	2475	122.1296130815	0.05
0	2477	122.2296130815	0.05
0	2479	122.3296130815	0.05
0	2479	122.355332971	0.05
0	2481	122.4296130815	0.05
0	2483	122.5296130815	0.05
0	2485	122.6296130815	0.05
0	2487	122.7296130815	0.05
0	2489	122.8296130815	0.05
0	2491	122.9296130815	0.05
0	2492	122.977562413	0.05
0	2493	123.0296130815	0.05
0	2495	123.1296130815	0.05
0	2497	123.2296130815	0.05
0	2499	123.3296130815	0.05
0	2501	123.4296130815	0.05
0	2503	123.5296130815	0.05
0	2503	123.552544366	0.05
0	2505	123.6296130815	0.05
0	2507	123.7296130815	0.05
0	2509	123.8296130815	0.05
0	2511	123.9296130815	0.05
0	2513	124.0296130815	0.05
0	2515	124.1296130815	0.05
0	2517	124.2296130815	0.05
0	2519	124.3296130815	0.05
0	2521	124.4296130815	0.05
0	2523	124.5296130815	0.05
0	2523	124.557307864	0.05
0	2525	124.6296130815	0.05
0	2527	124.7296130815	0.05
0	2529	124.8296130815	0.05
0	2531	124.9296130815	0.05
0	2533	125.0296130815	0.05
0	2534	125.100671008	0.05
0	2535	125.1296130815	0.05
0	2537	125.2296130815	0.05
0	2539	125.3296130815	0.05
0	2541	125.4296130815	0.05
0	2543	125.5296130815	0.05
0	2545	125.6296130815	0.05
0	2545	125.66852296	0.05
0	2547	125.7296130815	0.05
0	2549	125.8296130815	0.05
0	2551	125.9296130815	0.05
0	2553	126.0296130815	0.05
0	2555	126.1296130815	0.05
0	2557	126.2296130815	0.05
0	2559	126.3296130815	0.05
0	2560	126.388774573	0.05
0	2561	126.4296130815	0.05
0	2563	126.5296130815	0.05
0	2565	126.6296130815	0.05
0	2567	126.7296130815	0.05
0	2569	126.8296130815	0.05
0	2571	126.9296130815	0.05
0	2573	127.0296130815	0.05
0	2574	127.129396951	0.05
0	2575	127.1296130815	0.05
0	2577	127.205441242938	0.05
0	2579	127.305441242938	0.05
0	2581	127.405441242938	0.05
0	2583	127.505441242938	0.05
0	2585	127.605441242938	0.05
0	2587	127.705441242938	0.05
0	2588	127.74941128	0.05
0	2589	127.805441242938	0.05
0	2591	127.905441242938	0.05
0	2593	128.005441242938	0.05
0	2595	128.105441242938	0.05
0	2596	128.118578053201	0.05
0	2598	128.205441242938	0.05
0	2600	128.305441242938	0.05
0	2602	128.405441242938	0.05
0	2602	128.41691629	0.05
0	2604	128.505441242938	0.05
0	2606	128.605441242938	0.05
0	2608	128.705441242938	0.05
0	2610	128.805441242938	0.05
0	2612	128.905441242938	0.05
0	2614	129.005441242938	0.05
0	2616	129.105441242938	0.05
0	2616	129.109513813	0.05
0	2618	129.205441242938	0.05
0	2620	129.305441242938	0.05
0	2622	129.405441242938	0.05
0	2624	129.505441242938	0.0495
0	2624	129.505441242938	0.0495
0	2625	129.576128764	0.0495
0	2626	129.605441242938	0.0495
0	2628	129.705441242938	0.0495
0	2630	129.805441242938	0.0495
0	2632	129.905441242938	0.0495
0	2634	130.005441242938	0.0495
0	2636	130.105441242938	0.0495
0	2637	130.156172728	0.0495
0	2638	130.205441242938	0.0495
0	2640	130.305441242938	0.0495
0	2642	130.405441242938	0.0495
0	2644	130.505441242938	0.0495
0	2646	130.605441242938	0.0495
0	2648	130.705441242938	0.0495
0	2650	130.805441242938	0.0495
0	2650	130.8429133	0.0495
0	2652	130.905441242938	0.049005
0	2652	130.905441242938	0.049005
0	2654	131.005441242938	0.049005
0	2657	131.105441242938	0.049005
0	2659	131.205441242938	0.049005
0	2661	131.305441242938	0.049005
0	2661	131.368211749	0.049005
0	2663	131.405441242938	0.049005
0	2665	131.505441242938	0.049005
0	2667	131.605441242938	0.049005
0	2669	131.705441242938	0.049005
0	2670	131.791744999	0.049005
0	2671	131.805441242938	0.049005
0	2673	131.905441242938	0.049005
0	2675	132.005441242938	0.049005
0	2677	132.105441242938	0.049005
0	2679	132.205441242938	0.049005
0	2679	132.224323579	0.049005
0	2681	132.305441242938	0.049005
0	2683	132.405441242938	0.049005
0	2685	132.505441242938	0.049005
0	2687	132.605441242938	0.049005
0	2689	132.705441242938	0.049005
0	2689	132.706585186	0.049005
0	2691	132.805441242938	0.049005
0	2693	132.905441242938	0.049005
0	2695	133.005441242938	0.049005
0	2697	133.105441242938	0.049005
0	2699	133.205441242938	0.049005
0	2701	133.305441242938	0.049005
0	2701	133.313728081	0.049005
0	2703	133.405441242938	0.049005
0	2705	133.505441242938	0.049005
0	2707	133.605441242938	0.049005
0	2709	133.705441242938	0.049005
0	2711	133.805441242938	0.049005
0	2711	133.824025933	0.049005
0	2713	133.905441242938	0.049005
0	2715	134.005441242938	0.049005
0	2717	134.105441242938	0.049005
0	2719	134.205441242938	0.049005
0	2721	134.305441242938	0.049005
0	2723	134.405441242938	0.049005
0	2723	134.467847539	0.049005
0	2725	134.505441242938	0.049005
0	2727	134.605441242938	0.049005
0	2729	134.705441242938	0.049005
0	2731	134.805441242938	0.049005
0	2733	134.905441242938	0.049005
0	2735	135.005441242938	0.049005
0	2737	135.105441242938	0.049005
0	2737	135.130753456	0.049005
0	2738	135.15569368346	0.04851495
0	2738	135.15569368346	0.04851495
0	2740	135.25569368346	0.04851495
0	2742	135.35569368346	0.04851495
0	2744	135.45569368346	0.04851495
0	2746	135.55569368346	0.04851495
0	2747	135.65062816	0.04851495
0	2748	135.65569368346	0.04851495
0	2750	135.75569368346	0.04851495
0	2752	135.85569368346	0.04851495
0	2754	135.95569368346	0.04851495
0	2756	136.05569368346	0.04851495
0	2758	136.15569368346	0.04851495
0	2759	136.182579697	0.04851495
0	2760	136.25569368346	0.04851495
0	2762	136.35569368346	0.04851495
0	2764	136.45569368346	0.04851495
0	2766	136.55569368346	0.04851495
0	2768	136.65569368346	0.0480298005
0	2768	136.65569368346	0.0480298005
0	2769	136.708746631	0.0480298005
0	2770	136.75569368346	0.0480298005
0	2772	136.85569368346	0.0480298005
0	2774	136.95569368346	0.0480298005
0	2776	137.05569368346	0.0480298005
0	2778	137.084090759773	0.0480298005
0	2779	137.15569368346	0.048316212194748
0	2780	137.192899345	0.048465034840908
0	2781	137.201640634773	0.0485
0	2782	137.25569368346	0.048716212194748
0	2784	137.326640634773	0.049
0	2785	137.35569368346	0.049116212194748
0	2787	137.451640634773	0.0495
0	2788	137.45569368346	0.049516212194748
0	2789	137.49060403	0.049655853580908
0	2790	137.55569368346	0.049916212194748
0	2792	137.576640634773	0.05
0	2793	137.65569368346	0.05
0	2795	137.75569368346	0.05
0	2797	137.85569368346	0.05
0	2799	137.95569368346	0.05
0	2800	138.051935158	0.05
0	2801	138.05569368346	0.05
0	2803	138.15569368346	0.05
0	2805	138.25569368346	0.05
0	2807	138.35569368346	0.05
0	2809	138.45569368346	0.05
0	2810	138.513588013	0.05
0	2811	138.55569368346	0.05
0	2813	138.65569368346	0.05
0	2815	138.75569368346	0.05
0	2817	138.827017931137	0.05
0	2819	138.927017931137	0.05
0	2820	138.985598929	0.05
0	2821	139.027017931137	0.05
0	2823	139.127017931137	0.05
0	2825	139.227017931137	0.05
0	2827	139.327017931137	0.05
0	2829	139.427017931137	0.05
0	2829	139.466768572	0.05
0	2831	139.527017931137	0.05
0	2833	139.627017931137	0.05
0	2835	139.727017931137	0.05
0	2837	139.827017931137	0.05
0	2838	139.897133614	0.05
0	2839	139.927017931137	0.05
0	2841	140.027017931137	0.05
0	2843	140.127017931137	0.05
0	2844	140.18720557	0.05
0	2845	140.227017931137	0.05
0	2847	140.327017931137	0.05
0	2849	140.427017931137	0.05
0	2851	140.527017931137	0.05
0	2853	140.627017931137	0.05
0	2853	140.649702133	0.05
0	2855	140.727017931137	0.05
0	2857	140.827017931137	0.05
0	2859	140.927017931137	0.05
0	2861	141.027017931137	0.05
0	2863	141.127017931137	0.05
0	2864	141.220994032	0.05
0	2865	141.227017931137	0.05
0	2867	141.327017931137	0.05
0	2869	141.427017931137	0.05
0	2871	141.527017931137	0.05
0	2873	141.627017931137	0.05
0	2874	141.677548903	0.05
0	2875	141.727017931137	0.05
0	2877	141.827017931137	0.05
0	2879	141.927017931137	0.05
0	2879	141.956702347	0.0495
0	2879	141.956702347	0.0495
0	2881	142.027017931137	0.049781262336548
0	2883	142.127017931137	0.05
0	2885	142.227017931137	0.05
0	2887	142.327017931137	0.05
0	2889	142.427017931137	0.05
0	2889	142.449399031	0.05
0	2891	142.527017931137	0.05
0	2893	142.627017931137	0.05
0	2895	142.727017931137	0.05
0	2897	142.827017931137	0.05
0	2899	142.927017931137	0.05
0	2900	143.01453874	0.05
0	2901	143.027017931137	0.05
0	2903	143.127017931137	0.05
0	2905	143.227017931137	0.05
0	2907	143.327017931137	0.05
0	2909	143.427017931137	0.05
0	2911	143.527017931137	0.05
0	2913	143.627017931137	0.05
0	2915	143.727017931137	0.05
0	2915	143.729371399	0.05
0	2917	143.827017931137	0.05
0	2919	143.927017931137	0.05
0	2921	144.027017931137	0.05
0	2923	144.127017931137	0.05
0	2926	144.227017931137	0.05
0	2929	144.327017931137	0.05
0	2929	144.369950767	0.05
0	2932	144.427017931137	0.05
0	2935	144.527017931137	0.05
0	2937	144.627017931137	0.05
0	2940	144.727017931137	0.05
0	2943	144.827017931137	0.05
0	2946	144.927017931137	0.05
0	2946	144.928549738	0.05
0	2949	145.027017931137	0.05
0	2952	145.127017931137	0.05
0	2954	145.227017931137	0.05
0	2957	145.327017931137	0.05
0	2957	145.34388073	0.05
0	2960	145.427017931137	0.05
0	2963	145.527017931137	0.05
0	2966	145.627017931137	0.05
0	2968	145.727017931137	0.0495
0	2968	145.727017931137	0.0495
0	2970	145.823407231	0.049885557199452
0	2971	145.827017931137	0.0499
0	2974	145.927017931137	0.05
0	2977	146.027017931137	0.05
0	2980	146.127017931137	0.05
0	2982	146.227017931137	0.05
0	2985	146.327017931137	0.05
0	2988	146.427017931137	0.05
0	2988	146.446171918	0.05
0	2991	146.527017931137	0.05
0	2994	146.627017931137	0.05
0	2996	146.727017931137	0.05
0	2999	146.827017931137	0.05
0	3002	146.927017931137	0.05
0	3002	146.959895056	0.05
0	3005	147.027017931137	0.05
0	3008	147.127017931137	0.05
0	3010	147.227017931137	0.05
0	3011	147.244498531	0.05
0	3013	147.327017931137	0.05
0	3016	147.427017931137	0.05
0	3019	147.527017931137	0.05
0	3022	147.627017931137	0.05
0	3024	147.727017931137	0.05
0	3025	147.765022474	0.05
0	3027	147.827017931137	0.05
0	3030	147.927017931137	0.05
0	3033	148.027017931137	0.05
0	3033	148.056075685	0.05
0	3035	148.127017931137	0.05
0	3037	148.227017931137	0.05
0	3039	148.327017931137	0.05
0	3041	148.427017931137	0.05
0	3043	148.527017931137	0.05
0	3045	148.627017931137	0.05
0	3046	148.680111457	0.05
0	3047	148.727017931137	0.05
0	3049	148.827017931137	0.05
0	3051	148.927017931137	0.05
0	3053	149.027017931137	0.05
0	3055	149.127017931137	0.05
0	3057	149.227017931137	0.05
0	3059	149.327017931137	0.05
0	3059	149.366580541	0.05
0	3061	149.427017931137	0.05
0	3063	149.527017931137	0.05
0	3065	149.627017931137	0.05
0	3067	149.727017931137	0.05
0	3069	149.827017931137	0.05
0	3070	149.890504876	0.05
0	3071	149.927017931137	0.05
0	3073	150.027017931137	0.05
0	3075	150.127017931137	0.05
0	3077	150.227017931137	0.05
0	3079	150.327017931137	0.05
0	3081	150.411618598	0.05
0	3082	150.427017931137	0.05
0	3084	150.527017931137	0.0495
0	3084	150.527017931137	0.0495
0	3086	150.627017931137	0.0499
0	3088	150.712338251291	0.05
0	3089	150.727017931137	0.05
0	3091	150.827017931137	0.05
0	3093	150.927017931137	0.05
0	3094	150.974456812	0.05
0	3095	151.027017931137	0.05
0	3097	151.127017931137	0.05
0	3099	151.227017931137	0.05
0	3101	151.327017931137	0.05
0	3103	151.427017931137	0.05
0	3104	151.512220978	0.05
0	3105	151.527017931137	0.05
0	3107	151.627017931137	0.05
0	3109	151.727017931137	0.05
0	3111	151.827017931137	0.05
0	3113	151.927017931137	0.05
0	3114	152.005240705	0.05
0	3115	152.027017931137	0.05
0	3117	152.127017931137	0.05
0	3119	152.227017931137	0.05
0	3121	152.327017931137	0.05
0	3123	152.427017931137	0.05
0	3125	152.527017931137	0.05
0	3126	152.614783414	0.05
0	3127	152.627017931137	0.05
0	3129	152.727017931137	0.05
0	3131	152.827017931137	0.05
0	3132	152.891707684	0.05
0	3133	152.927017931137	0.05
0	3135	153.027017931137	0.05
0	3137	153.127017931137	0.05
0	3139	153.227017931137	0.05
0	3141	153.327017931137	0.05
0	3142	153.406532173	0.05
0	3143	153.427017931137	0.05
0	3145	153.527017931137	0.05
0	3147	153.627017931137	0.05
0	3149	153.727017931137	0.05
0	3151	153.827017931137	0.05
0	3152	153.880532866	0.05
0	3153	153.927017931137	0.05
0	3155	154.027017931137	0.05
0	3157	154.127017931137	0.05
0	3159	154.227017931137	0.05
0	3161	154.327017931137	0.05
0	3162	154.386395278	0.05
0	3163	154.427017931137	0.05
0	3165	154.527017931137	0.05
0	3167	154.627017931137	0.05
0	3168	154.672794754	0.05
0	3169	154.727017931137	0.05
0	3171	154.827017931137	0.05
0	3173	154.927017931137	0.05
0	3175	155.027017931137	0.05
0	3177	155.127017931137	0.05
0	3177	155.14065994	0.05
0	3179	155.227017931137	0.05
0	3181	155.327017931137	0.05
0	3183	155.427017931137	0.05
0	3185	155.527017931137	0.05
0	3187	155.627017931137	0.05
0	3187	155.652904666	0.05
0	3189	155.727017931137	0.05
0	3191	155.827017931137	0.05
0	3193	155.927017931137	0.05
0	3195	156.027017931137	0.05
0	3196	156.074726962	0.05
0	3197	156.127017931137	0.05
0	3199	156.227017931137	0.05
0	3201	156.327017931137	0.05
0	3203	156.427017931137	0.05
0	3205	156.527017931137	0.05
0	3205	156.536563912	0.05
0	3207	156.627017931137	0.05
0	3209	156.727017931137	0.05
0	3211	156.827017931137	0.05
0	3213	156.927017931137	0.05
0	3214	157.00420237	0.05
0	3215	157.027017931137	0.05
0	3217	157.127017931137	0.05
0	3219	157.227017931137	0.05
0	3219	157.268250502	0.05
0	3221	157.327017931137	0.05
0	3223	157.427017931137	0.05
0	3225	157.527017931137	0.05
0	3227	157.627017931137	0.05
0	3229	157.727017931137	0.05
0	3230	157.789042969	0.05
0	3231	157.827017931137	0.05
0	3233	157.927017931137	0.05
0	3235	158.027017931137	0.05
0	3236	158.072834725	0.05
0	3237	158.127017931137	0.05
0	3239	158.227017931137	0.05
0	3241	158.327017931137	0.05
0	3243	158.427017931137	0.05
0	3244	158.524431982	0.05
0	3245	158.527017931137	0.05
0	3247	158.627017931137	0.05
0	3249	158.727017931137	0.05
0	3251	158.827017931137	0.05
0	3253	158.927017931137	0.05
0	3255	159.027017931137	0.05
0	3255	159.05230813	0.05
0	3257	159.127017931137	0.05
0	3259	159.227017931137	0.05
0	3261	159.327017931137	0.05
0	3263	159.427017931137	0.05
0	3265	159.527017931137	0.05
0	3266	159.603361441	0.05
0	3267	159.627017931137	0.05
0	3269	159.727017931137	0.05
0	3271	159.827017931137	0.05
0	3273	159.927017931137	0.05
0	3275	160.027017931137	0.05
0	3277	160.127017931137	0.05
0	3278	160.197294034	0.05
0	3279	160.227017931137	0.05
0	3281	160.327017931137	0.05
0	3283	160.427017931137	0.05
0	3285	160.527017931137	0.05
0	3287	160.627017931137	0.05
0	3288	160.713367393	0.05
0	3289	160.727017931137	0.05
0	3291	160.827017931137	0.05
0	3293	160.927017931137	0.05
0	3295	161.027017931137	0.05
0	3297	161.127017931137	0.05
0	3298	161.217526018	0.05
0	3299	161.227017931137	0.05
0	3301	161.327017931137	0.05
0	3304	161.427017931137	0.05
0	3307	161.527017931137	0.05
0	3310	161.627017931137	0.0495
0	3310	161.627017931137	0.0495
0	3312	161.727017931137	0.0495
0	3315	161.827017931137	0.0495
0	3318	161.927017931137	0.0495
0	3321	162.027017931137	0.0495
0	3324	162.127017931137	0.0495
0	3325	162.186266947	0.0495
0	3326	162.227017931137	0.0495
0	3329	162.327017931137	0.0495
0	3331	162.427017931137	0.0495
0	3333	162.527017931137	0.0495
0	3335	162.627017931137	0.0495
0	3337	162.727017931137	0.0495
0	3338	162.774724507	0.0495
0	3339	162.827017931137	0.0495
0	3341	162.927017931137	0.0495
0	3343	163.027017931137	0.0495
0	3345	163.127017931137	0.0495
0	3347	163.227017931137	0.0495
0	3349	163.327017931137	0.0495
0	3351	163.427017931137	0.0495
0	3353	163.527017931137	0.0495
0	3355	163.627017931137	0.0495
0	3356	163.677472471	0.0495
0	3357	163.727017931137	0.0495
0	3359	163.827017931137	0.0495
0	3361	163.927017931137	0.0495
0	3363	164.027017931137	0.0495
0	3365	164.127017931137	0.0495
0	3367	164.227017931137	0.0495
0	3369	164.327017931137	0.0495
0	3371	164.427017931137	0.0495
0	3372	164.502348061	0.0495
0	3373	164.527017931137	0.0495
0	3375	164.627017931137	0.0495
0	3377	164.727017931137	0.0495
0	3379	164.827017931137	0.0495
0	3381	164.927017931137	0.0495
0	3382	164.987297908	0.0495
0	3383	165.027017931137	0.0495
0	3385	165.127017931137	0.0495
0	3387	165.227017931137	0.0495
0	3389	165.327017931137	0.0495
0	3390	165.412086244	0.0495
0	3391	165.427017931137	0.0495
0	3393	165.527017931137	0.0495
0	3396	165.627017931137	0.0495
0	3398	165.727017931137	0.0495
0	3400	165.827017931137	0.049005
0	3400	165.827017931137	0.049005
0	3401	165.848314246729	0.049005
0	3402	165.915654766	0.049274362077084
0	3403	165.927017931137	0.049319814737632
0	3405	165.972064246729	0.0495
0	3406	166.027017931137	0.049719814737632
0	3408	166.097064246729	0.05
0	3409	166.127017931137	0.05
0	3411	166.227017931137	0.05
0	3413	166.327017931137	0.05
0	3414	166.4200339	0.05
0	3415	166.427017931137	0.05
0	3417	166.527017931137	0.05
0	3419	166.627017931137	0.05
0	3421	166.727017931137	0.05
0	3423	166.827017931137	0.05
0	3425	166.927017931137	0.05
0	3426	167.009330119	0.05
0	3427	167.027017931137	0.05
0	3429	167.127017931137	0.05
0	3431	167.227017931137	0.05
0	3433	167.327017931137	0.05
0	3435	167.427017931137	0.05
0	3437	167.527017931137	0.05
0	3438	167.625480688	0.05
0	3439	167.627017931137	0.05
0	3441	167.727017931137	0.05
0	3443	167.827017931137	0.05
0	3445	167.927017931137	0.05
0	3447	168.027017931137	0.05
0	3449	168.127017931137	0.05
0	3451	168.227017931137	0.05
0	3451	168.228548902	0.05
0	3453	168.327017931137	0.05
0	3455	168.427017931137	0.05
0	3457	168.527017931137	0.05
0	3459	168.627017931137	0.05
0	3461	168.727017931137	0.05
0	3463	168.827017931137	0.05
0	3463	168.859606669	0.05
0	3465	168.927017931137	0.05
0	3467	169.027017931137	0.05
0	3469	169.127017931137	0.05
0	3471	169.227017931137	0.05
0	3473	169.327017931137	0.05
0	3474	169.419246601	0.05
0	3475	169.427017931137	0.05
0	3477	169.527017931137	0.05
0	3479	169.627017931137	0.05
0	3481	169.727017931137	0.05
0	3483	169.827017931137	0.05
0	3485	169.927017931137	0.05
0	3487	170.027017931137	0.05
0	3489	170.127017931137	0.05
0	3489	170.153729182	0.05
0	3491	170.227017931137	0.05
0	3493	170.327017931137	0.05
0	3495	170.427017931137	0.05
0	3497	170.527017931137	0.05
0	3498	170.601675583	0.05
0	3499	170.627017931137	0.05
0	3501	170.727017931137	0.05
0	3503	170.827017931137	0.05
0	3505	170.927017931137	0.05
0	3507	171.027017931137	0.05
0	3508	171.111452086	0.05
0	3509	171.127017931137	0.05
0	3511	171.227017931137	0.05
0	3513	171.327017931137	0.05
0	3515	171.427017931137	0.05
0	3517	171.501215742199	0.05
0	3519	171.601215742199	0.05
0	3520	171.679783522	0.05
0	3521	171.701215742199	0.05
0	3523	171.801215742199	0.05
0	3525	171.901215742199	0.05
0	3527	172.001215742199	0.05
0	3529	172.101215742199	0.05
0	3531	172.201215742199	0.05
0	3533	172.301215742199	0.05
0	3535	172.401215742199	0.05
0	3535	172.453229104	0.05
0	3537	172.501215742199	0.05
0	3539	172.601215742199	0.05
0	3541	172.701215742199	0.05
0	3543	172.801215742199	0.05
0	3545	172.901215742199	0.05
0	3545	172.930279672	0.0495
0	3545	172.930279672	0.0495
0	3547	173.001215742199	0.049783744280796
0	3549	173.101215742199	0.05
0	3551	173.201215742199	0.05
0	3553	173.301215742199	0.05
0	3554	173.376755959	0.05
0	3555	173.401215742199	0.05
0	3557	173.501215742199	0.05
0	3559	173.601215742199	0.05
0	3560	173.675013196	0.05
0	3561	173.701215742199	0.05
0	3563	173.801215742199	0.05
0	3565	173.901215742199	0.05
0	3567	174.001215742199	0.05
0	3568	174.090743521	0.05
0	3569	174.101215742199	0.05
0	3571	174.201215742199	0.05
0	3573	174.301215742199	0.05
0	3575	174.401215742199	0.05
0	3577	174.501215742199	0.05
0	3577	174.564793879	0.05
0	3579	174.601215742199	0.05
0	3581	174.701215742199	0.05
0	3583	174.801215742199	0.05
0	3585	174.901215742199	0.05
0	3587	175.001215742199	0.05
0	3589	175.101215742199	0.05
0	3589	175.117455877	0.05
0	3591	175.201215742199	0.05
0	3593	175.301215742199	0.05
0	3595	175.401215742199	0.05
0	3597	175.501215742199	0.05
0	3599	175.601215742199	0.05
0	3600	175.675176469	0.05
0	3601	175.701215742199	0.05
0	3603	175.801215742199	0.05
0	3605	175.901215742199	0.05
0	3607	176.001215742199	0.05
0	3609	176.101215742199	0.05
0	3609	176.108611768	0.05
0	3611	176.201215742199	0.05
0	3613	176.301215742199	0.05
0	3615	176.401215742199	0.05
0	3617	176.501215742199	0.05
0	3619	176.601215742199	0.05
0	3621	176.701215742199	0.05
0	3621	176.70636115	0.05
0	3623	176.801215742199	0.05
0	3625	176.901215742199	0.05
0	3627	177.001215742199	0.05
0	3629	177.101215742199	0.05
0	3631	177.201215742199	0.05
0	3632	177.240970462	0.05
0	3633	177.301215742199	0.05
0	3635	177.401215742199	0.05
0	3637	177.501215742199	0.05
0	3639	177.601215742199	0.05
0	3639	177.617031646	0.05
0	3641	177.701215742199	0.05
0	3643	177.801215742199	0.05
0	3644	177.854990746	0.05
0	3645	177.901215742199	0.05
0	3647	178.001215742199	0.05
0	3649	178.101215742199	0.05
0	3649	178.123297231	0.05
0	3651	178.201215742199	0.05
0	3653	178.301215742199	0.05
0	3655	178.401215742199	0.05
0	3657	178.501215742199	0.05
0	3658	178.594916359	0.05
0	3659	178.601215742199	0.05
0	3661	178.701215742199	0.05
0	3663	178.801215742199	0.05
0	3665	178.901215742199	0.05
0	3667	179.001215742199	0.05
0	3668	179.041985725	0.05
0	3669	179.101215742199	0.05
0	3671	179.201215742199	0.05
0	3673	179.301215742199	0.05
0	3675	179.401215742199	0.05
0	3677	179.501215742199	0.05
0	3677	179.537525188	0.05
0	3677	179.538636668316	0.05
1	0	0	0.004
1	461	23.08057828677	0
1	468	23.367909541983	0.004
1	1037	51.652378732094	0
1	1359	67.675264311995	0.004
1	1451	71.93469827915	0
1	1880	93.357775816287	0.004
1	2596	128.118578053201	0
1	2778	137.084090759773	0.004
1	3088	150.712338251291	0
1	3401	165.848314246729	0.004
2	0	0	0.05
2	0	0.1	0.05
2	2	0.142161157	0.05
2	4	0.2	0.05
2	6	0.3	0.05
2	8	0.4	0.05
2	10	0.5	0.05
2	10	0.597171439	0.05
2	12	0.6	0.05
2	14	0.7	0.05
2	16	0.8	0.05
2	18	0.9	0.05
2	20	1	0.05
2	22	1.1	0.05
2	24	1.2	0.05
2	24	1.285740445	0.05
2	26	1.3	0.0495
2	26	1.3	0.0495
2	28	1.4	0.0499
2	30	1.5	0.05
2	30	1.570201081	0.05
2	32	1.6	0.05
2	34	1.7	0.05
2	36	1.8	0.05
2	38	1.9	0.05
2	40	2	0.05
2	40	2.033633755	0.05
2	42	2.1	0.05
2	44	2.2	0.05
2	44	2.246254066	0.05
2	46	2.3	0.05
2	48	2.4	0.05
2	50	2.5	0.05
2	50	2.53478278	0.05
2	52	2.6	0.0495
2	52	2.6	0.0495
2	54	2.7	0.0499
2	56	2.8	0.05
2	56	2.811603343	0.05
2	58	2.9	0.05
2	60	3	0.05
2	60	3.096519619	0.05
2	62	3.1	0.05
2	64	3.2	0.05
2	66	3.3	0.05
2	68	3.4	0.05
2	70	3.5	0.05
2	70	3.52539598	0.05
2	72	3.6	0.05
2	74	3.7	0.05
2	76	3.8	0.05
2	78	3.9	0.05
2	78	3.987999016	0.0495
2	78	3.987999016	0.0495
2	80	4	0.049548003936
2	82	4.1	0.049948003936
2	84	4.2	0.05
2	84	4.204016116	0.05
2	86	4.3	0.05
2	88	4.4	0.05
2	88	4.441827724	0.05
2	90	4.5	0.05
2	92	4.6	0.05
2	94	4.7	0.05
2	96	4.8	0.05
2	98	4.9	0.05
2	98	4.938578164	0.05
2	100	5	0.05
2	102	5.1	0.05
2	104	5.2	0.05
2	104	5.2242232	0.0495
2	104	5.2242232	0.0495
2	106	5.3	0.0498031072
2	108	5.4	0.05
2	110	5.5	0.05
2	112	5.6	0.05
2	112	5.691727417	0.05
2	114	5.7	0.05
2	116	5.8	0.05
2	118	5.9	0.05
2	120	6	0.05
2	122	6.1	0.05
2	122	6.148514263	0.05
2	124	6.2	0.05
2	126	6.3	0.05
2	128	6.4	0.05
2	128	6.428514907	0.05
2	130	6.5	0.05
2	132	6.6	0.0495
2	132	6.6	0.0495
2	134	6.7	0.0499
2	136	6.8	0.05
2	138	6.9	0.05
2	138	6.925707952	0.05
2	140	7	0.05
2	142	7.1	0.05
2	144	7.2	0.05
2	146	7.3	0.05
2	146	7.390390357	0.05
2	148	7.4	0.05
2	150	7.5	0.05
2	152	7.6	0.05
2	152	7.624321726	0.05
2	154	7.7	0.05
2	156	7.8	0.05
2	156	7.866767551	0.05
2	158	7.9	0.0495
2	158	7.9	0.0495
2	160	8	0.0499
2	162	8.1	0.05
2	162	8.140841926	0.05
2	164	8.2	0.05
2	166	8.3	0.05
2	168	8.4	0.05
2	170	8.5	0.05
2	170	8.579052082	0.05
2	172	8.6	0.05
2	174	8.7	0.05
2	176	8.8	0.05
2	178	8.9	0.05
2	180	9	0.05
2	180	9.079413031	0.05
2	182	9.1	0.05
2	184	9.2	0.05
2	186	9.3	0.0495
2	186	9.3	0.0495
2	188	9.4	0.0499
2	190	9.5	0.05
2	190	9.571359622	0.05
2	192	9.6	0.05
2	194	9.7	0.05
2	196	9.8	0.05
2	196	9.850870786	0.05
2	198	9.9	0.05
2	200	10	0.05
2	202	10.1	0.05
2	204	10.2	0.05
2	204	10.266672043	0.05
2	206	10.3	0.05
2	208	10.4	0.05
2	210	10.5	0.05
2	212	10.6	0.05
2	212	10.685048263	0.0495
2	212	10.685048263	0.0495
2	214	10.7	0.049559806948
2	216	10.8	0.049959806948
2	218	10.9	0.05
2	220	11	0.05
2	222	11.1	0.05
2	224	11.2	0.05
2	224	11.283991285	0.05
2	226	11.3	0.05
2	228	11.4	0.05
2	230	11.5	0.05
2	230	11.538212689	0.05
2	232	11.6	0.05
2	234	11.7	0.05
2	236	11.8	0.05
2	238	11.9	0.05
2	238	11.980219162	0.05
2	240	12	0.0495
2	240	12	0.0495
2	242	12.1	0.0499
2	244	12.2	0.05
2	246	12.3	0.05
2	248	12.4	0.05
2	248	12.447886393	0.05
2	250	12.5	0.05
2	252	12.6	0.05
2	254	12.7	0.05
2	256	12.8	0.05
2	258	12.9	0.05
2	260	13	0.05
2	262	13.1	0.05
2	264	13.2	0.05
2	264	13.228050838	0.05
2	266	13.3	0.05
2	268	13.4	0.05
2	270	13.5	0.0495
2	270	13.5	0.0495
2	272	13.6	0.0499
2	274	13.7	0.05
2	276	13.8	0.05
2	276	13.868391499	0.05
2	278	13.9	0.05
2	280	14	0.05
2	282	14.1	0.05
2	284	14.2	0.05
2	286	14.3	0.05
2	286	14.345463751	0.05
2	288	14.4	0.05
2	290	14.5	0.05
2	292	14.6	0.05
2	294	14.7	0.05
2	296	14.8	0.05
2	296	14.896477123	0.05
2	298	14.9	0.0495
2	298	14.9	0.0495
2	300	15	0.0499
2	302	15.1	0.05
2	304	15.2	0.05
2	306	15.3	0.05
2	306	15.381180874	0.05
2	308	15.4	0.05
2	310	15.5	0.05
2	312	15.6	0.05
2	314	15.7	0.05
2	314	15.792444454	0.05
2	316	15.8	0.05
2	318	15.9	0.05
2	320	16	0.05
2	322	16.1	0.05
2	324	16.2	0.05
2	326	16.3	0.05
2	328	16.4	0.0495
2	328	16.4	0.0495
2	328	16.428878098	0.049615512392
2	330	16.5	0.0499
2	332	16.6	0.05
2	334	16.7	0.05
2	336	16.8	0.05
2	338	16.9	0.05
2	338	16.917711613	0.05
2	340	17	0.05
2	342	17.1	0.05
2	344	17.2	0.05
2	346	17.3	0.05
2	346	17.390714077	0.05
2	348	17.4	0.05
2	350	17.5	0.05
2	352	17.6	0.05
2	354	17.7	0.05
2	356	17.8	0.0495
2	356	17.8	0.0495
2	358	17.9	0.0499
2	360	18	0.05
2	360	18.088224379	0.05
2	362	18.1	0.05
2	364	18.2	0.05
2	366	18.3	0.05
2	368	18.4	0.05
2	370	18.5	0.05
2	370	18.543241891	0.05
2	372	18.6	0.05
2	374	18.7	0.05
2	376	18.8	0.05
2	378	18.9	0.05
2	378	18.984952639	0.05
2	380	19	0.05
2	382	19.1	0.05
2	384	19.2	0.0495
2	384	19.2	0.0495
2	384	19.252260052	0.049709040208
2	386	19.3	0.0499
2	388	19.4	0.05
2	390	19.5	0.05
2	392	19.6	0.05
2	392	19.664242381	0.05
2	394	19.7	0.05
2	396	19.8	0.05
2	398	19.9	0.05
2	398	19.947083788	0.05
2	400	20	0.05
2	402	20.1	0.05
2	404	20.2	0.05
2	406	20.3	0.05
2	408	20.4	0.05
2	408	20.422762864	0.05
2	410	20.5	0.0495
2	410	20.5	0.0495
2	412	20.6	0.0499
2	414	20.7	0.05
2	416	20.8	0.05
2	416	20.887428394	0.05
2	418	20.9	0.05
2	420	21	0.05
2	422	21.1	0.05
2	422	21.18708214	0.05
2	424	21.2	0.05
2	426	21.3	0.05
2	428	21.4	0.05
2	430	21.5	0.05
2	430	21.596953402	0.05
2	432	21.6	0.05
2	434	21.7	0.05
2	436	21.8	0.05
2	438	21.9	0.0495
2	438	21.9	0.0495
2	440	22	0.0499
2	440	22.086436465	0.05
2	442	22.1	0.05
2	444	22.2	0.05
2	446	22.3	0.05
2	446	22.376513428	0.05
2	448	22.4	0.05
2	450	22.5	0.05
2	452	22.6	0.05
2	454	22.7	0.05
2	456	22.8	0.05
2	456	22.89819052	0.05
2	458	22.9	0.05
2	460	23	0.05
2	463	23.1	0.05
2	465	23.2	0.05
2	467	23.3	0.05
2	467	23.310208648	0.05
2	470	23.4	0.05
2	473	23.5	0.05
2	473	23.58319495	0.05
2	475	23.6	0.05
2	477	23.7	0.05
2	479	23.8	0.05
2	479	23.852158036	0.05
2	481	23.9	0.05
2	483	24	0.05
2	485	24.1	0.05
2	487	24.2	0.05
2	489	24.3	0.05
2	489	24.305550319	0.05
2	491	24.4	0.05
2	493	24.5	0.05
2	495	24.6	0.05
2	497	24.7	0.05
2	497	24.783221482	0.05
2	499	24.8	0.05
2	501	24.9	0.05
2	503	25	0.05
2	505	25.1	0.05
2	505	25.196099098	0.05
2	507	25.2	0.05
2	509	25.3	0.05
2	511	25.4	0.05
2	513	25.5	0.05
2	515	25.6	0.05
2	515	25.649795338	0.05
2	517	25.7	0.05
2	519	25.8	0.05
2	521	25.9	0.05
2	523	26	0.05
2	525	26.1	0.05
2	527	26.2	0.05
2	527	26.216062876	0.05
2	529	26.3	0.05
2	531	26.4	0.05
2	533	26.5	0.05
2	535	26.6	0.05
2	537	26.7	0.05
2	539	26.8	0.05
2	539	26.834309932	0.05
2	541	26.9	0.05
2	543	27	0.05
2	545	27.1	0.05
2	547	27.2	0.05
2	549	27.3	0.05
2	549	27.396700708	0.05
2	551	27.4	0.05
2	553	27.5	0.05
2	555	27.6	0.05
2	557	27.7	0.05
2	559	27.8	0.05
2	561	27.9	0.05
2	561	27.936558268	0.05
2	563	28	0.05
2	565	28.1	0.05
2	567	28.2	0.05
2	569	28.3	0.05
2	569	28.369898449	0.05
2	571	28.4	0.05
2	573	28.5	0.05
2	575	28.6	0.05
2	577	28.7	0.05
2	579	28.8	0.05
2	579	28.809967141	0.05
2	581	28.9	0.05
2	583	29	0.05
2	585	29.1	0.05
2	587	29.2	0.05
2	589	29.3	0.05
2	589	29.37874546	0.05
2	591	29.4	0.05
2	593	29.5	0.05
2	595	29.6	0.05
2	597	29.7	0.05
2	599	29.8	0.05
2	599	29.887935481	0.05
2	601	29.9	0.05
2	603	30	0.05
2	605	30.1	0.05
2	605	30.181816678	0.05
2	607	30.2	0.05
2	609	30.3	0.05
2	611	30.4	0.05
2	613	30.5	0.05
2	615	30.6	0.05
2	615	30.688378489	0.05
2	617	30.7	0.05
2	619	30.8	0.05
2	621	30.9	0.05
2	623	31	0.05
2	625	31.1	0.05
2	625	31.156567969	0.05
2	627	31.2	0.05
2	629	31.3	0.05
2	631	31.4	0.05
2	633	31.5	0.05
2	633	31.596863914	0.05
2	635	31.6	0.05
2	637	31.7	0.05
2	639	31.8	0.05
2	641	31.9	0.05
2	643	32	0.05
2	645	32.1	0.05
2	645	32.12464639	0.05
2	647	32.2	0.05
2	649	32.3	0.05
2	651	32.4	0.05
2	653	32.5	0.05
2	655	32.6	0.05
2	657	32.7	0.05
2	657	32.707789132	0.05
2	659	32.8	0.05
2	661	32.9	0.05
2	663	33	0.05
2	665	33.1	0.05
2	667	33.2	0.05
2	669	33.3	0.05
2	669	33.313635634	0.05
2	671	33.4	0.05
2	673	33.5	0.05
2	675	33.6	0.05
2	675	33.604623637	0.05
2	677	33.7	0.05
2	679	33.8	0.05
2	681	33.9	0.05
2	683	34	0.05
2	683	34.018053268	0.05
2	685	34.1	0.05
2	687	34.2	0.05
2	689	34.3	0.05
2	691	34.4	0.05
2	691	34.45201099	0.05
2	693	34.5	0.05
2	695	34.6	0.05
2	697	34.7	0.05
2	697	34.751032861	0.05
2	699	34.8	0.05
2	701	34.9	0.05
2	703	35	0.05
2	705	35.1	0.05
2	707	35.2	0.05
2	709	35.3	0.05
2	709	35.35505224	0.05
2	711	35.4	0.05
2	713	35.5	0.05
2	715	35.6	0.05
2	715	35.642842846	0.05
2	717	35.7	0.05
2	719	35.8	0.05
2	721	35.9	0.05
2	723	36	0.05
2	725	36.1	0.05
2	725	36.150992209	0.05
2	727	36.2	0.05
2	729	36.3	0.05
2	731	36.4	0.05
2	731	36.435068941	0.05
2	733	36.5	0.05
2	735	36.6	0.05
2	737	36.7	0.05
2	739	36.8	0.05
2	741	36.9	0.05
2	741	36.902036182	0.05
2	743	37	0.05
2	745	37.1	0.05
2	747	37.2	0.05
2	749	37.3	0.05
2	749	37.36604797	0.05
2	751	37.4	0.05
2	753	37.5	0.05
2	755	37.6	0.05
2	757	37.7	0.05
2	759	37.8	0.05
2	759	37.810657951	0.05
2	761	37.9	0.05
2	763	38	0.05
2	763	38.032597414	0.05
2	765	38.1	0.05
2	767	38.2	0.05
2	769	38.3	0.05
2	771	38.4	0.05
2	773	38.5	0.05
2	773	38.502296821	0.05
2	775	38.6	0.05
2	777	38.7	0.05
2	779	38.8	0.05
2	779	38.801715652	0.05
2	781	38.9	0.05
2	783	39	0.05
2	783	39.085444237	0.05
2	785	39.1	0.05
2	787	39.2	0.05
2	789	39.3	0.05
2	789	39.378895102	0.05
2	791	39.4	0.05
2	793	39.5	0.05
2	795	39.6	0.05
2	795	39.668710108	0.05
2	797	39.7	0.05
2	799	39.8	0.05
2	801	39.9	0.05
2	803	40	0.05
2	805	40.1	0.05
2	805	40.190658595	0.05
2	807	40.2	0.05
2	809	40.3	0.05
2	811	40.4	0.05
2	813	40.5	0.05
2	815	40.6	0.05
2	817	40.7	0.05
2	819	40.8	0.05
2	819	40.8502504	0.05
2	821	40.9	0.05
2	823	41	0.05
2	825	41.1	0.05
2	827	41.2	0.05
2	829	41.3	0.05
2	831	41.4	0.05
2	831	41.462525599	0.05
2	833	41.5	0.05
2	835	41.6	0.05
2	837	41.7	0.05
2	839	41.8	0.05
2	841	41.9	0.05
2	843	42	0.05
2	845	42.1	0.05
2	845	42.198975427	0.05
2	847	42.2	0.05
2	849	42.3	0.05
2	851	42.4	0.05
2	853	42.5	0.05
2	855	42.6	0.05
2	857	42.7	0.05
2	859	42.8	0.05
2	861	42.9	0.05
2	863	43	0.05
2	865	43.1	0.05
2	865	43.13040256	0.05
2	867	43.2	0.05
2	869	43.3	0.05
2	871	43.4	0.05
2	873	43.5	0.05
2	875	43.6	0.05
2	875	43.665098914	0.05
2	877	43.7	0.05
2	879	43.8	0.05
2	881	43.9	0.05
2	883	44	0.05
2	885	44.1	0.05
2	887	44.2	0.05
2	887	44.292177337	0.05
2	889	44.3	0.05
2	891	44.4	0.05
2	893	44.5	0.05
2	895	44.6	0.05
2	897	44.7	0.05
2	899	44.8	0.05
2	901	44.9	0.05
2	901	44.937742636	0.05
2	903	45	0.05
2	905	45.1	0.05
2	907	45.2	0.05
2	909	45.3	0.05
2	911	45.4	0.05
2	913	45.5	0.05
2	913	45.569234617	0.05
2	915	45.6	0.05
2	917	45.7	0.05
2	919	45.8	0.05
2	921	45.9	0.05
2	923	46	0.05
2	925	46.1	0.05
2	927	46.2	0.05
2	927	46.202628157	0.05
2	929	46.3	0.05
2	931	46.4	0.05
2	933	46.5	0.05
2	935	46.6	0.05
2	937	46.7	0.05
2	939	46.8	0.05
2	939	46.803959227	0.05
2	941	46.9	0.05
2	942	46.974101355068	0.05
2	944	47	0.0495
2	944	47	0.0495
2	946	47.1	0.0495
2	948	47.2	0.0495
2	950	47.3	0.0495
2	950	47.395762054	0.0495
2	952	47.4	0.0495
2	954	47.5	0.0495
2	956	47.6	0.0495
2	958	47.7	0.0495
2	960	47.8	0.0495
2	962	47.9	0.0495
2	962	47.91644974	0.0495
2	964	48	0.0495
2	966	48.1	0.0495
2	968	48.2	0.0495
2	970	48.3	0.0495
2	970	48.36961279	0.0495
2	972	48.4	0.049005
2	972	48.4	0.049005
2	974	48.5	0.049005
2	976	48.6	0.049005
2	978	48.7	0.049005
2	980	48.8	0.049005
2	980	48.88043365	0.049005
2	982	48.9	0.049005
2	984	49	0.049005
2	986	49.1	0.049005
2	988	49.2	0.049005
2	990	49.3	0.049005
2	992	49.4	0.049005
2	992	49.481523013	0.049005
2	994	49.5	0.049005
2	996	49.6	0.049005
2	998	49.7	0.049005
2	1000	49.8	0.049005
2	1002	49.9	0.04851495
2	1002	49.9	0.04851495
2	1002	49.940984074	0.04851495
2	1004	50	0.04851495
2	1006	50.1	0.04851495
2	1008	50.2	0.04851495
2	1010	50.3	0.04851495
2	1012	50.4	0.04851495
2	1012	50.468402566	0.04851495
2	1014	50.5	0.04851495
2	1016	50.6	0.04851495
2	1017	50.684302222663	0.04851495
2	1019	50.784302222663	0.04851495
2	1021	50.884302222663	0.04851495
2	1022	50.938375393	0.04851495
2	1023	50.984302222663	0.04851495
2	1025	51.084302222663	0.04851495
2	1027	51.184302222663	0.04851495
2	1029	51.284302222663	0.04851495
2	1031	51.384302222663	0.04851495
2	1032	51.467012185	0.04851495
2	1033	51.484302222663	0.04851495
2	1035	51.584302222663	0.04851495
2	1038	51.684302222663	0.04851495
2	1040	51.784302222663	0.04851495
2	1042	51.884302222663	0.04851495
2	1044	51.984302222663	0.04851495
2	1045	52.071778285	0.04851495
2	1046	52.084302222663	0.04851495
2	1048	52.184302222663	0.04851495
2	1050	52.284302222663	0.04851495
2	1052	52.384302222663	0.04851495
2	1054	52.484302222663	0.04851495
2	1056	52.584302222663	0.04851495
2	1058	52.684302222663	0.04851495
2	1060	52.784302222663	0.0480298005
2	1060	52.784302222663	0.0480298005
2	1060	52.790931772	0.0480298005
2	1062	52.884302222663	0.0480298005
2	1064	52.984302222663	0.0480298005
2	1066	53.084302222663	0.0480298005
2	1068	53.184302222663	0.0480298005
2	1070	53.284302222663	0.0480298005
2	1072	53.384302222663	0.0480298005
2	1072	53.392240393	0.0480298005
2	1074	53.484302222663	0.0480298005
2	1076	53.584302222663	0.0480298005
2	1078	53.684302222663	0.0480298005
2	1080	53.784302222663	0.0480298005
2	1082	53.884302222663	0.0480298005
2	1084	53.984302222663	0.0480298005
2	1085	54.002976826	0.0480298005
2	1086	54.084302222663	0.0480298005
2	1088	54.184302222663	0.047549502495
2	1088	54.184302222663	0.047549502495
2	1090	54.284302222663	0.047549502495
2	1092	54.384302222663	0.047549502495
2	1094	54.484302222663	0.047549502495
2	1095	54.507932506	0.047549502495
2	1096	54.584302222663	0.047549502495
2	1098	54.684302222663	0.047549502495
2	1099	54.772577269	0.047549502495
2	1100	54.784302222663	0.047549502495
2	1102	54.884302222663	0.047549502495
2	1104	54.984302222663	0.047549502495
2	1105	55.057347784	0.047549502495
2	1106	55.084302222663	0.047549502495
2	1108	55.184302222663	0.047549502495
2	1110	55.284302222663	0.047549502495
2	1112	55.384302222663	0.047549502495
2	1114	55.484302222663	0.047549502495
2	1115	55.53938635	0.047549502495
2	1116	55.584302222663	0.047549502495
2	1118	55.684302222663	0.047549502495
2	1120	55.784302222663	0.047549502495
2	1122	55.884302222663	0.047549502495
2	1123	55.956223267	0.047549502495
2	1124	55.984302222663	0.047549502495
2	1126	56.084302222663	0.047549502495
2	1128	56.184302222663	0.047549502495
2	1130	56.284302222663	0.047549502495
2	1132	56.384302222663	0.047549502495
2	1133	56.420497957	0.047549502495
2	1134	56.484302222663	0.047549502495
2	1136	56.584302222663	0.047549502495
2	1138	56.684302222663	0.047549502495
2	1141	56.784302222663	0.047549502495
2	1141	56.86229359	0.047549502495
2	1143	56.884302222663	0.047549502495
2	1145	56.984302222663	0.047549502495
2	1147	57.084302222663	0.047549502495
2	1149	57.184302222663	0.047549502495
2	1151	57.284302222663	0.047549502495
2	1151	57.36833683	0.047549502495
2	1153	57.384302222663	0.047549502495
2	1155	57.484302222663	0.047549502495
2	1157	57.584302222663	0.047549502495
[...]
2	2832	139.570075732869	0.035886526629914
2	2834	139.670075732869	0.035886526629914
2	2836	139.770075732869	0.035886526629914
2	2838	139.870075732869	0.035886526629914
2	2838	139.897133614	0.035886526629914
2	2840	139.970075732869	0.035886526629914
2	2842	140.070075732869	0.035886526629914
2	2844	140.170075732869	0.035886526629914
2	2844	140.18720557	0.035886526629914
2	2846	140.270075732869	0.035886526629914
2	2848	140.370075732869	0.035886526629914
2	2850	140.470075732869	0.035886526629914
2	2852	140.570075732869	0.035527661363615
2	2852	140.570075732869	0.035527661363615
2	2853	140.649702133	0.035527661363615
2	2854	140.670075732869	0.035527661363615
2	2856	140.770075732869	0.035527661363615
2	2858	140.870075732869	0.035527661363615
2	2860	140.970075732869	0.035527661363615
2	2862	141.070075732869	0.035527661363615
2	2864	141.170075732869	0.035527661363615
2	2864	141.220994032	0.035527661363615
2	2866	141.270075732869	0.035527661363615
2	2868	141.370075732869	0.035527661363615
2	2870	141.470075732869	0.035527661363615
2	2872	141.570075732869	0.035527661363615
2	2874	141.670075732869	0.035527661363615
2	2874	141.677548903	0.035527661363615
2	2876	141.770075732869	0.035527661363615
2	2878	141.870075732869	0.035527661363615
2	2879	141.956702347	0.035527661363615
2	2880	141.970075732869	0.035527661363615
2	2882	142.070075732869	0.035527661363615
2	2884	142.170075732869	0.035527661363615
2	2886	142.270075732869	0.035527661363615
2	2888	142.370075732869	0.035527661363615
2	2889	142.449399031	0.035527661363615
2	2890	142.470075732869	0.035527661363615
2	2892	142.570075732869	0.035527661363615
2	2894	142.670075732869	0.035527661363615
2	2896	142.770075732869	0.035527661363615
2	2898	142.870075732869	0.035527661363615
2	2900	142.970075732869	0.035527661363615
2	2900	143.01453874	0.035527661363615
2	2902	143.070075732869	0.035527661363615
2	2904	143.170075732869	0.035527661363615
2	2906	143.270075732869	0.035527661363615
2	2908	143.370075732869	0.035172384749978
2	2908	143.370075732869	0.035172384749978
2	2910	143.470075732869	0.035172384749978
2	2912	143.570075732869	0.035172384749978
2	2914	143.670075732869	0.035172384749978
2	2915	143.729371399	0.035172384749978
2	2916	143.770075732869	0.035172384749978
2	2918	143.870075732869	0.035172384749978
2	2920	143.970075732869	0.035172384749978
2	2922	144.070075732869	0.035172384749978
2	2924	144.170075732869	0.035172384749978
2	2925	144.190219424313	0.035172384749978
2	2927	144.270075732869	0.035491809984202
2	2928	144.272123236818	0.0355
2	2929	144.369950767	0.035891310120728
2	2930	144.370075732869	0.035891809984204
2	2931	144.397123236818	0.036
2	2933	144.470075732869	0.036291809984204
2	2934	144.522123236818	0.0365
2	2936	144.570075732869	0.036691809984204
2	2938	144.647123236818	0.03663
2	2938	144.647123236818	0.03663
2	2939	144.670075732869	0.036721809984204
2	2941	144.739623236818	0.037
2	2942	144.770075732869	0.037121809984204
2	2944	144.864623236818	0.0375
2	2945	144.870075732869	0.037521809984204
2	2946	144.928549738	0.037755706004728
2	2947	144.970075732869	0.037921809984204
2	2948	144.989623236818	0.038
2	2950	145.070075732869	0.038321809984204
2	2951	145.114623236818	0.0385
2	2953	145.170075732869	0.038721809984204
2	2955	145.239623236818	0.039
2	2956	145.270075732869	0.039121809984204
2	2957	145.34388073	0.039417029972728
2	2958	145.364623236818	0.0395
2	2959	145.370075732869	0.039521809984204
2	2961	145.470075732869	0.039921809984204
2	2962	145.489623236818	0.04
2	2964	145.570075732869	0.040321809984204
2	2965	145.614623236818	0.0405
2	2967	145.670075732869	0.040721809984204
2	2969	145.739623236818	0.041
2	2970	145.770075732869	0.041121809984204
2	2970	145.823407231	0.041335135976728
2	2972	145.864623236818	0.0415
2	2973	145.870075732869	0.041521809984204
2	2975	145.970075732869	0.041921809984204
2	2976	145.989623236818	0.042
2	2978	146.070075732869	0.042321809984204
2	2979	146.114623236818	0.0425
2	2981	146.170075732869	0.042721809984204
2	2983	146.239623236818	0.043
2	2984	146.270075732869	0.043121809984204
2	2986	146.364623236818	0.0435
2	2987	146.370075732869	0.043521809984204
2	2988	146.446171918	0.043826194724728
2	2989	146.470075732869	0.043921809984204
2	2990	146.489623236818	0.044
2	2992	146.570075732869	0.044321809984204
2	2993	146.614623236818	0.0445
2	2995	146.670075732869	0.044721809984204
2	2997	146.739623236818	0.045
2	2998	146.770075732869	0.044670591884362
2	2998	146.770075732869	0.044670591884362
2	3000	146.864623236818	0.0455
2	3001	146.870075732869	0.045521809984204
2	3002	146.959895056	0.045881087276728
2	3003	146.970075732869	0.045921809984204
2	3004	146.989623236818	0.046
2	3006	147.070075732869	0.046321809984204
2	3007	147.114623236818	0.0465
2	3009	147.170075732869	0.046721809984204
2	3011	147.239623236818	0.047
2	3011	147.244498531	0.047019501176728
2	3012	147.270075732869	0.047121809984204
2	3014	147.364623236818	0.0475
2	3015	147.370075732869	0.047521809984204
2	3017	147.470075732869	0.047921809984204
2	3018	147.489623236818	0.048
2	3020	147.570075732869	0.048321809984204
2	3021	147.614623236818	0.0485
2	3023	147.670075732869	0.048721809984204
2	3025	147.739623236818	0.049
2	3025	147.765022474	0.049101596948728
2	3026	147.770075732869	0.048630591884362
2	3026	147.770075732869	0.048630591884362
2	3028	147.864623236818	0.0495
2	3029	147.870075732869	0.049521809984204
2	3031	147.970075732869	0.049921809984204
2	3032	147.989623236818	0.05
2	3033	148.056075685	0.05
2	3034	148.070075732869	0.05
2	3036	148.170075732869	0.05
2	3038	148.270075732869	0.05
2	3040	148.370075732869	0.05
2	3042	148.470075732869	0.05
2	3044	148.570075732869	0.05
2	3046	148.670075732869	0.05
2	3046	148.680111457	0.05
2	3048	148.770075732869	0.05
2	3050	148.870075732869	0.05
2	3052	148.970075732869	0.05
2	3054	149.070075732869	0.05
2	3056	149.170075732869	0.0495
2	3056	149.170075732869	0.0495
2	3058	149.270075732869	0.0499
2	3059	149.366580541	0.05
2	3060	149.370075732869	0.05
2	3062	149.470075732869	0.05
2	3064	149.570075732869	0.05
2	3066	149.670075732869	0.05
2	3068	149.770075732869	0.05
2	3070	149.870075732869	0.05
2	3070	149.890504876	0.05
2	3072	149.970075732869	0.05
2	3074	150.070075732869	0.05
2	3076	150.170075732869	0.05
2	3078	150.270075732869	0.05
2	3080	150.370075732869	0.05
2	3081	150.378667298529	0.05
2	3081	150.411618598	0.05
2	3083	150.470075732869	0.05
2	3085	150.570075732869	0.05
2	3087	150.670075732869	0.05
2	3090	150.770075732869	0.05
2	3092	150.870075732869	0.05
2	3094	150.970075732869	0.05
2	3094	150.974456812	0.05
2	3096	151.070075732869	0.05
2	3098	151.170075732869	0.05
2	3100	151.270075732869	0.05
2	3102	151.370075732869	0.05
2	3104	151.470075732869	0.05
2	3104	151.512220978	0.05
2	3106	151.570075732869	0.05
2	3108	151.670075732869	0.05
2	3110	151.770075732869	0.05
2	3112	151.870075732869	0.05
2	3114	151.970075732869	0.0495
2	3114	151.970075732869	0.0495
2	3114	152.005240705	0.0495
2	3116	152.070075732869	0.0495
2	3118	152.170075732869	0.0495
2	3120	152.270075732869	0.0495
2	3122	152.370075732869	0.0495
2	3124	152.470075732869	0.0495
2	3126	152.570075732869	0.0495
2	3126	152.614783414	0.0495
2	3128	152.670075732869	0.0495
2	3130	152.770075732869	0.0495
2	3132	152.870075732869	0.0495
2	3132	152.891707684	0.0495
2	3134	152.970075732869	0.0495
2	3136	153.070075732869	0.0495
2	3138	153.170075732869	0.0495
2	3140	153.270075732869	0.0495
2	3142	153.370075732869	0.049005
2	3142	153.370075732869	0.049005
2	3142	153.406532173	0.049005
2	3144	153.470075732869	0.049005
2	3146	153.570075732869	0.049005
2	3148	153.670075732869	0.049005
2	3150	153.770075732869	0.049005
2	3152	153.870075732869	0.049005
2	3152	153.880532866	0.049005
2	3154	153.970075732869	0.049005
2	3156	154.070075732869	0.049005
2	3158	154.170075732869	0.049005
2	3160	154.270075732869	0.049005
2	3162	154.370075732869	0.049005
2	3162	154.386395278	0.049005
2	3164	154.470075732869	0.049005
2	3166	154.570075732869	0.049005
2	3168	154.670075732869	0.049005
2	3168	154.672794754	0.04851495
2	3168	154.672794754	0.04851495
2	3170	154.770075732869	0.04851495
2	3172	154.870075732869	0.04851495
2	3174	154.970075732869	0.04851495
2	3176	155.070075732869	0.04851495
2	3177	155.14065994	0.04851495
2	3178	155.170075732869	0.04851495
2	3180	155.270075732869	0.04851495
2	3182	155.370075732869	0.04851495
2	3184	155.470075732869	0.04851495
2	3186	155.570075732869	0.04851495
2	3187	155.652904666	0.04851495
2	3188	155.670075732869	0.04851495
2	3190	155.770075732869	0.04851495
2	3192	155.870075732869	0.04851495
2	3194	155.970075732869	0.04851495
2	3196	156.070075732869	0.04851495
2	3196	156.074726962	0.0480298005
2	3196	156.074726962	0.0480298005
2	3198	156.170075732869	0.0480298005
2	3200	156.270075732869	0.0480298005
2	3202	156.370075732869	0.0480298005
2	3204	156.470075732869	0.0480298005
2	3205	156.536563912	0.0480298005
2	3206	156.570075732869	0.0480298005
2	3208	156.670075732869	0.0480298005
2	3210	156.770075732869	0.0480298005
2	3212	156.870075732869	0.0480298005
2	3214	156.970075732869	0.0480298005
2	3214	157.00420237	0.0480298005
2	3216	157.070075732869	0.0480298005
2	3218	157.170075732869	0.0480298005
2	3219	157.268250502	0.0480298005
2	3220	157.270075732869	0.0480298005
2	3222	157.370075732869	0.0480298005
2	3224	157.470075732869	0.047549502495
2	3224	157.470075732869	0.047549502495
2	3226	157.570075732869	0.047549502495
2	3228	157.670075732869	0.047549502495
2	3230	157.770075732869	0.047549502495
2	3230	157.789042969	0.047549502495
2	3232	157.870075732869	0.047549502495
2	3234	157.970075732869	0.047549502495
2	3236	158.070075732869	0.047549502495
2	3236	158.072834725	0.047549502495
2	3238	158.170075732869	0.047549502495
2	3240	158.270075732869	0.047549502495
2	3242	158.370075732869	0.047549502495
2	3244	158.470075732869	0.047549502495
2	3244	158.524431982	0.047549502495
2	3246	158.570075732869	0.047549502495
2	3248	158.670075732869	0.047549502495
2	3250	158.770075732869	0.047549502495
2	3252	158.870075732869	0.04707400747005
2	3252	158.870075732869	0.04707400747005
2	3254	158.970075732869	0.04707400747005
2	3255	159.05230813	0.04707400747005
2	3256	159.070075732869	0.04707400747005
2	3258	159.170075732869	0.04707400747005
2	3260	159.270075732869	0.04707400747005
2	3262	159.370075732869	0.04707400747005
2	3264	159.470075732869	0.04707400747005
2	3266	159.570075732869	0.04707400747005
2	3266	159.603361441	0.04707400747005
2	3268	159.670075732869	0.04707400747005
2	3270	159.770075732869	0.04707400747005
2	3272	159.870075732869	0.04707400747005
2	3274	159.970075732869	0.04707400747005
2	3276	160.070075732869	0.04707400747005
2	3278	160.170075732869	0.04707400747005
2	3278	160.197294034	0.04707400747005
2	3280	160.270075732869	0.04660326739535
2	3280	160.270075732869	0.04660326739535
2	3282	160.370075732869	0.04660326739535
2	3284	160.470075732869	0.04660326739535
2	3286	160.570075732869	0.04660326739535
2	3288	160.670075732869	0.04660326739535
2	3288	160.713367393	0.04660326739535
2	3290	160.770075732869	0.04660326739535
2	3292	160.870075732869	0.04660326739535
2	3294	160.970075732869	0.04660326739535
2	3296	161.070075732869	0.04660326739535
2	3298	161.170075732869	0.04660326739535
2	3298	161.217526018	0.04660326739535
2	3300	161.270075732869	0.04660326739535
2	3302	161.370075732869	0.04660326739535
2	3303	161.39001960096	0.04660326739535
2	3305	161.470075732869	0.046923491922986
2	3306	161.489202752123	0.047
2	3308	161.570075732869	0.047323491922984
2	3309	161.614202752123	0.0475
2	3311	161.670075732869	0.047723491922984
2	3313	161.739202752123	0.048
2	3314	161.770075732869	0.048123491922984
2	3316	161.864202752123	0.0485
2	3317	161.870075732869	0.048523491922984
2	3319	161.970075732869	0.048923491922984
2	3320	161.989202752123	0.049
2	3322	162.070075732869	0.049323491922984
2	3323	162.114202752123	0.0495
2	3325	162.170075732869	0.049723491922984
2	3325	162.186266947	0.049788256779508
2	3327	162.239202752123	0.05
2	3328	162.270075732869	0.05
2	3330	162.370075732869	0.05
2	3332	162.470075732869	0.05
2	3334	162.570075732869	0.05
2	3336	162.670075732869	0.05
2	3338	162.770075732869	0.05
2	3338	162.774724507	0.05
2	3340	162.870075732869	0.0495
2	3340	162.870075732869	0.0495
2	3342	162.970075732869	0.0499
2	3344	163.070075732869	0.05
2	3346	163.170075732869	0.05
2	3348	163.270075732869	0.05
2	3350	163.370075732869	0.05
2	3352	163.470075732869	0.05
2	3354	163.570075732869	0.05
2	3356	163.670075732869	0.05
2	3356	163.677472471	0.05
2	3358	163.770075732869	0.05
2	3360	163.870075732869	0.05
2	3362	163.970075732869	0.05
2	3364	164.070075732869	0.05
2	3366	164.170075732869	0.05
2	3368	164.270075732869	0.05
2	3370	164.370075732869	0.05
2	3372	164.470075732869	0.0495
2	3372	164.470075732869	0.0495
2	3372	164.502348061	0.049629089312524
2	3374	164.570075732869	0.0499
2	3376	164.670075732869	0.05
2	3378	164.770075732869	0.05
2	3380	164.870075732869	0.05
2	3382	164.970075732869	0.05
2	3382	164.987297908	0.05
2	3384	165.070075732869	0.05
2	3386	165.170075732869	0.05
2	3388	165.270075732869	0.05
2	3390	165.370075732869	0.05
2	3390	165.412086244	0.05
2	3392	165.470075732869	0.05
2	3394	165.570075732869	0.05
2	3395	165.614490465033	0.05
2	3397	165.670075732869	0.05
2	3399	165.770075732869	0.05
2	3402	165.870075732869	0.05
2	3402	165.915654766	0.05
2	3404	165.970075732869	0.05
2	3407	166.070075732869	0.05
2	3410	166.170075732869	0.05
2	3412	166.270075732869	0.05
2	3414	166.370075732869	0.05
2	3414	166.4200339	0.05
2	3416	166.470075732869	0.05
2	3418	166.570075732869	0.05
2	3420	166.670075732869	0.05
2	3422	166.770075732869	0.05
2	3424	166.870075732869	0.05
2	3426	166.970075732869	0.05
2	3426	167.009330119	0.05
2	3428	167.070075732869	0.0495
2	3428	167.070075732869	0.0495
2	3430	167.170075732869	0.0495
2	3432	167.270075732869	0.0495
2	3434	167.370075732869	0.0495
2	3436	167.470075732869	0.0495
2	3438	167.570075732869	0.0495
2	3438	167.625480688	0.0495
2	3440	167.670075732869	0.0495
2	3442	167.770075732869	0.0495
2	3444	167.870075732869	0.0495
2	3446	167.970075732869	0.0495
2	3448	168.070075732869	0.0495
2	3450	168.170075732869	0.0495
2	3451	168.228548902	0.0495
2	3452	168.270075732869	0.0495
2	3454	168.370075732869	0.0495
2	3456	168.470075732869	0.0495
2	3458	168.570075732869	0.049005
2	3458	168.570075732869	0.049005
2	3460	168.670075732869	0.049005
2	3462	168.770075732869	0.049005
2	3463	168.859606669	0.049005
2	3464	168.870075732869	0.049005
2	3466	168.970075732869	0.049005
2	3468	169.070075732869	0.049005
2	3470	169.170075732869	0.049005
2	3472	169.270075732869	0.049005
2	3474	169.370075732869	0.049005
2	3474	169.419246601	0.049005
2	3476	169.470075732869	0.049005
2	3478	169.570075732869	0.049005
2	3480	169.670075732869	0.049005
2	3482	169.770075732869	0.049005
2	3484	169.870075732869	0.049005
2	3486	169.970075732869	0.049005
2	3488	170.070075732869	0.04851495
2	3488	170.070075732869	0.04851495
2	3489	170.153729182	0.04851495
2	3490	170.170075732869	0.04851495
2	3492	170.270075732869	0.04851495
2	3494	170.370075732869	0.04851495
2	3496	170.470075732869	0.04851495
2	3498	170.570075732869	0.04851495
2	3498	170.601675583	0.04851495
2	3500	170.670075732869	0.04851495
2	3502	170.770075732869	0.04851495
2	3504	170.870075732869	0.04851495
2	3506	170.970075732869	0.04851495
2	3508	171.070075732869	0.04851495
2	3508	171.111452086	0.04851495
2	3510	171.170075732869	0.04851495
2	3512	171.270075732869	0.04851495
2	3514	171.370075732869	0.04851495
2	3516	171.470075732869	0.0480298005
2	3516	171.470075732869	0.0480298005
2	3518	171.570075732869	0.0480298005
2	3520	171.670075732869	0.0480298005
2	3520	171.679783522	0.0480298005
2	3522	171.770075732869	0.0480298005
2	3524	171.870075732869	0.0480298005
2	3526	171.970075732869	0.0480298005
2	3528	172.070075732869	0.0480298005
2	3530	172.170075732869	0.0480298005
2	3532	172.270075732869	0.0480298005
2	3534	172.370075732869	0.0480298005
2	3535	172.453229104	0.0480298005
2	3536	172.470075732869	0.0480298005
2	3538	172.570075732869	0.0480298005
2	3540	172.670075732869	0.0480298005
2	3542	172.770075732869	0.0480298005
2	3544	172.870075732869	0.0480298005
2	3545	172.930279672	0.0480298005
2	3546	172.970075732869	0.0480298005
2	3548	173.070075732869	0.0480298005
2	3550	173.170075732869	0.0480298005
2	3552	173.270075732869	0.0480298005
2	3554	173.370075732869	0.0480298005
2	3554	173.376755959	0.0480298005
2	3556	173.470075732869	0.0480298005
2	3558	173.570075732869	0.0480298005
2	3560	173.670075732869	0.0480298005
2	3560	173.675013196	0.0480298005
2	3562	173.770075732869	0.0480298005
2	3564	173.870075732869	0.0480298005
2	3566	173.970075732869	0.0480298005
2	3568	174.070075732869	0.0480298005
2	3568	174.090743521	0.0480298005
2	3570	174.170075732869	0.0480298005
2	3572	174.270075732869	0.047549502495
2	3572	174.270075732869	0.047549502495
2	3574	174.370075732869	0.047549502495
2	3576	174.470075732869	0.047549502495
2	3577	174.564793879	0.047549502495
2	3578	174.570075732869	0.047549502495
2	3580	174.670075732869	0.047549502495
2	3582	174.770075732869	0.047549502495
2	3584	174.838636668316	0.047549502495
2	3586	174.938636668316	0.047549502495
2	3588	175.038636668316	0.047549502495
2	3589	175.117455877	0.047549502495
2	3590	175.138636668316	0.047549502495
2	3592	175.238636668316	0.047549502495
2	3594	175.338636668316	0.047549502495
2	3596	175.438636668316	0.047549502495
2	3598	175.538636668316	0.047549502495
2	3600	175.638636668316	0.047549502495
2	3600	175.675176469	0.04707400747005
2	3600	175.675176469	0.04707400747005
2	3602	175.738636668316	0.04707400747005
2	3604	175.838636668316	0.04707400747005
2	3606	175.938636668316	0.04707400747005
2	3608	176.038636668316	0.04707400747005
2	3609	176.108611768	0.04707400747005
2	3610	176.138636668316	0.04707400747005
2	3612	176.238636668316	0.04707400747005
2	3614	176.338636668316	0.04707400747005
2	3616	176.438636668316	0.04707400747005
2	3618	176.538636668316	0.04707400747005
2	3620	176.638636668316	0.04707400747005
2	3621	176.70636115	0.04707400747005
2	3622	176.738636668316	0.04707400747005
2	3624	176.838636668316	0.04707400747005
2	3626	176.938636668316	0.04707400747005
2	3628	177.038636668316	0.04707400747005
2	3630	177.138636668316	0.04660326739535
2	3630	177.138636668316	0.04660326739535
2	3632	177.238636668316	0.04660326739535
2	3632	177.240970462	0.04660326739535
2	3634	177.338636668316	0.04660326739535
2	3636	177.438636668316	0.04660326739535
2	3638	177.538636668316	0.04660326739535
2	3639	177.617031646	0.04660326739535
2	3640	177.638636668316	0.04660326739535
2	3642	177.738636668316	0.04660326739535
2	3644	177.838636668316	0.04660326739535
2	3644	177.854990746	0.04660326739535
2	3646	177.938636668316	0.04660326739535
2	3648	178.038636668316	0.04660326739535
2	3649	178.123297231	0.04660326739535
2	3650	178.138636668316	0.04660326739535
2	3652	178.238636668316	0.04660326739535
2	3654	178.338636668316	0.04660326739535
2	3656	178.438636668316	0.046137234721396
2	3656	178.438636668316	0.046137234721396
2	3658	178.538636668316	0.046137234721396
2	3658	178.594916359	0.046137234721396
2	3660	178.638636668316	0.046137234721396
2	3662	178.738636668316	0.046137234721396
2	3664	178.838636668316	0.046137234721396
2	3666	178.938636668316	0.046137234721396
2	3668	179.038636668316	0.046137234721396
2	3668	179.041985725	0.046137234721396
2	3670	179.138636668316	0.046137234721396
2	3672	179.238636668316	0.046137234721396
2	3674	179.338636668316	0.046137234721396
2	3676	179.438636668316	0.046137234721396
2	3677	179.537525188	0.046137234721396
2	3677	179.538636668316	0.046137234721396
3	0	0	0.004
3	942	46.974101355068	0
3	2925	144.190219424313	0.004
3	3081	150.378667298529	0
3	3303	161.39001960096	0.004
3	3395	165.614490465033	0
4	0	0	0.004
4	461	23.08057828677	0
4	468	23.367909541983	0.004
4	1037	51.652378732094	0
4	1359	67.675264311995	0.004
4	1451	71.93469827915	0
4	1880	93.357775816287	0.004
4	2596	128.118578053201	0
4	2778	137.084090759773	0.004
4	3088	150.712338251291	0
4	3401	165.848314246729	0.004
5	0	0	0.004
5	942	46.974101355068	0
5	2925	144.190219424313	0.004
5	3081	150.378667298529	0
5	3303	161.39001960096	0.004
5	3395	165.614490465033	0

