version 2
run Mysterio_ex2-0-20210819-17:14:27-3184
attr configname Mysterio_ex2
attr datetime 20210819-17:14:27
attr experiment Mysterio_ex2
attr inifile omnetpp.ini
attr iterationvars ""
attr iterationvarsf ""
attr measurement ""
attr network MysterioCommunication2
attr processid 3184
attr repetition 0
attr replication #0
attr resultdir results
attr runnumber 0
attr seedset 0
param *.host[*].mobility.numeroDrones 2
param *.numHosts 2
param *.host[*].osgModel "\"3d/drone.ive.100.scale.0,0,90.rot\""
param *.basestation.osgModel "\"3d/car.ive.50.scale.0,0,90.rot\""
param *.canvasVisualizer.energyStorageVisualizer.displayEnergyStorages true
param *.host[*].hasStatus true
param *.host[*].energyStorage.typename "\"SimpleEpEnergyStorage\""
param *.host[*].wlan[*].radio.energyConsumer.typename "\"StateBasedEpEnergyConsumer\""
param *.host[*].energyManagement.typename "\"SimpleEpEnergyManagement\""
param *.host[*].energyStorage.nominalCapacity 0.05J
param *.host[*].energyManagement.nodeShutdownCapacity "0.1 * energyStorage.nominalCapacity"
param *.host[*].energyManagement.nodeStartCapacity "0.5 * energyStorage.nominalCapacity"
param *.host[*].energyStorage.initialCapacity 0.05J
param *.host[*].energyGenerator.typename "\"AlternatingEpEnergyGenerator\""
param *.host[*].energyGenerator.powerGeneration 4mW
param *.host[*].energyGenerator.sleepInterval exponential(25s)
param *.host[*].energyGenerator.generationInterval exponential(25s)
param *.host[*].mobility.typename "\"UAVMobility\""
param *.host[*].mobility.changeInterval 1s
param *.host[*].mobility.initialMovementHeading "uniform(0deg, 360deg)"
param *.host[*].mobility.initialMovementElevation "uniform(-90deg, 90deg)"
param *.host[*].mobility.angleDelta uniform(-10deg,10deg)
param *.host[*].mobility.rotationAxisAngle uniform(-10deg,10deg)
param *.host[*].mobility.speed uniform(10mps,20mps)
param *.host[*].mobility.faceForward false
param *.host[*].mobility.initialX 220m
param *.host[*].mobility.initialY 220m
param *.host[*].mobility.initialZ 80m
param *.visualizer.osgVisualizer.typename "\"IntegratedOsgVisualizer\""
param *.visualizer.osgVisualizer.sceneVisualizer.clearColor "\"skyblue\""
param *.visualizer.osgVisualizer.sceneVisualizer.sceneImage "\"showcases/desert\""
param *.visualizer.osgVisualizer.sceneVisualizer.sceneImageSize 5000m
param *.visualizer.osgVisualizer.sceneVisualizer.axisLength 1000m
param *.visualizer.osgVisualizer.sceneVisualizer.sceneMinX -2000m
param *.visualizer.osgVisualizer.sceneVisualizer.sceneMinY -2000m
param *.visualizer.osgVisualizer.sceneVisualizer.sceneMinZ 0m
param *.visualizer.osgVisualizer.sceneVisualizer.sceneMaxX 3000m
param *.visualizer.osgVisualizer.sceneVisualizer.sceneMaxY 3000m
param *.visualizer.osgVisualizer.sceneVisualizer.sceneMaxZ 1000m
param *.visualizer.osgVisualizer.networkNodeVisualizer.displayModuleName false
param *.visualizer.*.mobilityVisualizer.displayMobility true
param *.visualizer.*.mobilityVisualizer.displayPositions true
param *.visualizer.*.mobilityVisualizer.displayOrientations false
param *.visualizer.*.mobilityVisualizer.displayVelocities true
param *.visualizer.*.mobilityVisualizer.displayMovementTrails true
param *.visualizer.*.mobilityVisualizer.animationSpeed 3
param **.constraintAreaMinX 0m
param **.constraintAreaMinY 0m
param **.constraintAreaMinZ 0m
param **.constraintAreaMaxX 1000m
param **.constraintAreaMaxY 1000m
param **.constraintAreaMaxZ 1000m
param **.networkConfiguratorModule "\"\""

vector 0 MysterioCommunication2.host[0].energyStorage residualEnergyCapacity:vector ETV
attr interpolationmode linear
attr source residualEnergyCapacityChanged
attr title "Residual energy capacity, vector"
vector 1 MysterioCommunication2.host[0].energyGenerator powerGeneration:vector ETV
attr interpolationmode sample-hold
attr source powerGenerationChanged
attr title "Power generation, vector"
vector 2 MysterioCommunication2.host[1].energyStorage residualEnergyCapacity:vector ETV
attr interpolationmode linear
attr source residualEnergyCapacityChanged
attr title "Residual energy capacity, vector"
vector 3 MysterioCommunication2.host[1].energyGenerator powerGeneration:vector ETV
attr interpolationmode sample-hold
attr source powerGenerationChanged
attr title "Power generation, vector"
vector 4 MysterioCommunication2.host[0].energyStorage powerGeneration:vector ETV
attr interpolationmode sample-hold
attr source powerGenerationChanged
attr title "Power generation, vector"
vector 5 MysterioCommunication2.host[1].energyStorage powerGeneration:vector ETV
attr interpolationmode sample-hold
attr source powerGenerationChanged
attr title "Power generation, vector"
0	0	0	0.05
0	0	0.1	0.05
0	2	0.153224911	0.05
0	3	0.2	0.05
0	5	0.3	0.05
0	7	0.4	0.05
0	9	0.5	0.05
0	11	0.6	0.05
0	13	0.7	0.05
0	14	0.72519784	0.05
0	15	0.8	0.05
0	17	0.9	0.05
0	19	1	0.05
0	21	1.1	0.05
0	23	1.2	0.05
0	25	1.3	0.05
0	27	1.4	0.05
0	29	1.5	0.05
0	30	1.509601558	0.05
0	31	1.6	0.05
0	33	1.7	0.05
0	35	1.8	0.05
0	37	1.9	0.05
0	38	1.96590142	0.05
0	39	2	0.05
0	41	2.1	0.05
0	43	2.2	0.05
0	44	2.261620549	0.05
0	45	2.3	0.05
0	47	2.4	0.05
0	49	2.5	0.05
0	51	2.6	0.05
0	52	2.694197092	0.05
0	53	2.7	0.05
0	55	2.8	0.05
0	57	2.9	0.05
0	59	3	0.05
0	61	3.1	0.05
0	63	3.2	0.05
0	64	3.245334952	0.05
0	65	3.3	0.05
0	67	3.4	0.05
0	69	3.5	0.05
0	71	3.6	0.05
0	72	3.693194368	0.05
0	73	3.7	0.05
0	75	3.8	0.05
0	77	3.9	0.05
0	79	4	0.05
0	81	4.1	0.05
0	82	4.180643191	0.05
0	83	4.2	0.05
0	85	4.3	0.05
0	87	4.4	0.05
0	89	4.5	0.05
0	91	4.6	0.05
0	93	4.7	0.05
0	94	4.744904437	0.05
0	95	4.8	0.05
0	97	4.9	0.05
0	99	5	0.05
0	101	5.1	0.05
0	103	5.2	0.05
0	105	5.3	0.05
0	106	5.366100997	0.05
0	107	5.4	0.05
0	109	5.5	0.05
0	111	5.6	0.05
0	113	5.7	0.05
0	115	5.8	0.05
0	117	5.9	0.05
0	118	5.949701002	0.05
0	119	6	0.05
0	121	6.1	0.05
0	123	6.2	0.05
0	125	6.3	0.05
0	127	6.4	0.05
0	128	6.46364722	0.05
0	129	6.5	0.05
0	131	6.6	0.05
0	133	6.7	0.05
0	135	6.8	0.05
0	137	6.9	0.05
0	138	6.917246134	0.05
0	139	7	0.05
0	141	7.1	0.05
0	143	7.2	0.05
0	145	7.3	0.05
0	147	7.4	0.05
0	149	7.5	0.05
0	151	7.6	0.05
0	153	7.7	0.05
0	154	7.767330664	0.05
0	155	7.8	0.05
0	157	7.9	0.05
0	159	8	0.05
0	161	8.1	0.05
0	163	8.2	0.05
0	164	8.242790971	0.05
0	165	8.3	0.05
0	167	8.4	0.05
0	169	8.5	0.05
0	171	8.6	0.05
0	173	8.7	0.05
0	175	8.8	0.05
0	177	8.9	0.05
0	178	8.98342714	0.05
0	179	9	0.05
0	181	9.1	0.05
0	183	9.2	0.05
0	185	9.3	0.05
0	187	9.4	0.05
0	189	9.5	0.05
0	191	9.6	0.05
0	193	9.7	0.05
0	194	9.716962153	0.05
0	195	9.8	0.05
0	197	9.9	0.05
0	199	10	0.05
0	201	10.1	0.05
0	203	10.2	0.05
0	204	10.264012441	0.05
0	205	10.3	0.05
0	207	10.4	0.05
0	209	10.5	0.05
0	211	10.6	0.05
0	213	10.7	0.05
0	215	10.8	0.05
0	216	10.879485985	0.05
0	217	10.9	0.05
0	219	11	0.05
0	221	11.1	0.05
0	223	11.2	0.05
0	225	11.3	0.05
0	227	11.4	0.05
0	228	11.485515052	0.05
0	229	11.5	0.05
0	231	11.6	0.05
0	233	11.7	0.05
0	235	11.8	0.05
0	237	11.9	0.05
0	239	12	0.05
0	240	12.066038161	0.05
0	241	12.1	0.05
0	243	12.2	0.05
0	245	12.3	0.05
0	247	12.4	0.05
0	249	12.5	0.05
0	250	12.560673991	0.05
0	251	12.6	0.05
0	253	12.7	0.05
0	255	12.8	0.05
0	257	12.9	0.05
0	259	13	0.05
0	261	13.1	0.05
0	263	13.2	0.05
0	265	13.3	0.05
0	266	13.339515436	0.05
0	267	13.4	0.05
0	269	13.5	0.05
0	271	13.6	0.05
0	273	13.7	0.05
0	275	13.8	0.05
0	277	13.9	0.05
0	279	14	0.05
0	281	14.1	0.05
0	282	14.118400777	0.05
0	283	14.2	0.05
0	285	14.3	0.05
0	287	14.4	0.05
0	289	14.5	0.05
0	291	14.6	0.05
0	293	14.7	0.05
0	294	14.754871258	0.05
0	295	14.8	0.05
0	297	14.9	0.05
0	299	15	0.05
0	301	15.1	0.05
0	303	15.2	0.05
0	305	15.3	0.05
0	306	15.307518994	0.05
0	307	15.4	0.05
0	309	15.5	0.05
0	311	15.6	0.05
0	313	15.7	0.05
0	315	15.8	0.05
0	316	15.873397243	0.05
0	317	15.9	0.05
0	319	16	0.05
0	321	16.1	0.05
0	323	16.2	0.05
0	325	16.3	0.05
0	327	16.4	0.05
0	328	16.424256367	0.05
0	329	16.5	0.05
0	331	16.6	0.05
0	333	16.7	0.05
0	335	16.8	0.05
0	337	16.9	0.05
0	338	16.970863375	0.05
0	339	17	0.05
0	341	17.1	0.05
0	343	17.2	0.05
0	345	17.3	0.05
0	347	17.4	0.05
0	349	17.5	0.05
0	350	17.548332013	0.05
0	351	17.6	0.05
0	353	17.7	0.05
0	355	17.8	0.05
0	357	17.9	0.05
0	359	18	0.05
0	361	18.1	0.05
0	362	18.101723158	0.05
0	363	18.2	0.05
0	365	18.3	0.05
0	367	18.4	0.05
0	369	18.5	0.05
0	371	18.6	0.05
0	372	18.696653911	0.05
0	373	18.7	0.05
0	375	18.8	0.05
0	377	18.9	0.05
0	379	19	0.05
0	381	19.1	0.05
0	383	19.2	0.05
0	385	19.3	0.05
0	387	19.4	0.05
0	388	19.467577363	0.05
0	389	19.5	0.05
0	391	19.6	0.05
0	393	19.7	0.05
0	395	19.8	0.05
0	397	19.9	0.05
0	399	20	0.05
0	401	20.1	0.05
0	402	20.16578665	0.05
0	403	20.2	0.05
0	405	20.3	0.05
0	407	20.4	0.05
0	409	20.5	0.05
0	411	20.6	0.05
0	413	20.7	0.05
0	414	20.725640359	0.05
0	415	20.8	0.05
0	417	20.9	0.05
0	419	21	0.05
0	421	21.1	0.05
0	423	21.2	0.05
0	424	21.29608129	0.05
0	425	21.3	0.05
0	427	21.4	0.05
0	429	21.5	0.05
0	431	21.6	0.05
0	433	21.7	0.05
0	435	21.8	0.05
0	436	21.81720256	0.05
0	437	21.9	0.05
0	439	22	0.05
0	441	22.1	0.05
0	443	22.2	0.05
0	445	22.3	0.05
0	446	22.357948741	0.05
0	447	22.4	0.05
0	449	22.5	0.05
0	451	22.6	0.05
0	453	22.7	0.05
0	455	22.8	0.05
0	457	22.9	0.05
0	458	22.915540861	0.05
0	459	23	0.05
0	461	23.08057828677	0.05
0	462	23.1	0.0495
0	462	23.1	0.0495
0	464	23.2	0.0495
0	466	23.3	0.0495
0	468	23.4	0.0495
0	469	23.473918717	0.0495
0	470	23.5	0.0495
0	472	23.6	0.0495
0	474	23.7	0.0495
0	476	23.8	0.0495
0	478	23.9	0.0495
0	479	23.927977258	0.0495
0	480	24	0.0495
0	482	24.1	0.0495
0	484	24.2	0.0495
0	485	24.216183424	0.0495
0	486	24.3	0.0495
0	488	24.4	0.0495
0	490	24.5	0.049005
0	490	24.5	0.049005
0	492	24.6	0.049005
0	494	24.7	0.049005
0	496	24.8	0.049005
0	497	24.81005137	0.049005
0	498	24.9	0.049005
0	500	25	0.049005
0	502	25.1	0.049005
0	504	25.2	0.049005
0	506	25.3	0.049005
0	507	25.351480426	0.049005
0	508	25.4	0.049005
0	510	25.5	0.049005
0	512	25.6	0.049005
0	514	25.7	0.049005
0	516	25.8	0.049005
0	518	25.9	0.049005
0	519	25.904998825	0.04851495
0	519	25.904998825	0.04851495
0	520	26	0.04851495
0	522	26.1	0.04851495
0	524	26.2	0.04851495
0	526	26.3	0.04851495
0	528	26.4	0.04851495
0	529	26.42854642	0.04851495
0	530	26.5	0.04851495
0	532	26.6	0.04851495
0	534	26.7	0.04851495
0	536	26.8	0.04851495
0	538	26.9	0.04851495
0	540	27	0.04851495
0	542	27.1	0.04851495
0	543	27.103313062	0.04851495
0	544	27.2	0.04851495
0	546	27.3	0.04851495
0	548	27.4	0.0480298005
0	548	27.4	0.0480298005
0	550	27.5	0.0480298005
0	552	27.6	0.0480298005
0	553	27.657551905	0.0480298005
0	554	27.7	0.0480298005
0	556	27.8	0.0480298005
0	558	27.9	0.0480298005
0	560	28	0.0480298005
0	562	28.1	0.0480298005
0	563	28.147410487	0.0480298005
0	564	28.2	0.0480298005
0	566	28.3	0.0480298005
0	568	28.4	0.0480298005
0	570	28.5	0.0480298005
0	571	28.544924689	0.0480298005
0	572	28.6	0.0480298005
0	574	28.7	0.0480298005
0	576	28.8	0.047549502495
0	576	28.8	0.047549502495
0	578	28.9	0.047549502495
0	580	29	0.047549502495
0	581	29.061732856	0.047549502495
0	582	29.1	0.047549502495
0	584	29.2	0.047549502495
0	586	29.3	0.047549502495
0	588	29.4	0.047549502495
0	590	29.5	0.047549502495
0	591	29.566275769	0.047549502495
0	592	29.6	0.047549502495
0	594	29.7	0.047549502495
0	596	29.8	0.047549502495
0	598	29.9	0.047549502495
0	599	29.979164335	0.047549502495
0	600	30	0.047549502495
0	602	30.1	0.047549502495
0	604	30.2	0.04707400747005
0	604	30.2	0.04707400747005
0	606	30.3	0.04707400747005
0	608	30.4	0.04707400747005
0	610	30.5	0.04707400747005
0	611	30.564390595	0.04707400747005
0	612	30.6	0.04707400747005
0	614	30.7	0.04707400747005
0	616	30.8	0.04707400747005
0	618	30.9	0.04707400747005
0	620	31	0.04707400747005
0	622	31.1	0.04707400747005
0	624	31.2	0.04707400747005
0	626	31.3	0.04707400747005
0	627	31.317121723	0.04707400747005
0	628	31.4	0.04707400747005
0	630	31.5	0.04707400747005
0	632	31.6	0.04707400747005
0	634	31.7	0.04660326739535
0	634	31.7	0.04660326739535
0	636	31.8	0.04660326739535
0	638	31.9	0.04660326739535
0	640	32	0.04660326739535
0	641	32.043714799	0.04660326739535
0	642	32.1	0.04660326739535
0	644	32.2	0.04660326739535
0	646	32.3	0.04660326739535
0	648	32.4	0.04660326739535
0	650	32.5	0.04660326739535
0	652	32.6	0.04660326739535
0	654	32.7	0.04660326739535
0	656	32.8	0.04660326739535
0	657	32.840099929	0.04660326739535
0	658	32.9	0.04660326739535
0	660	33	0.04660326739535
0	662	33.1	0.04660326739535
0	664	33.2	0.046137234721396
0	664	33.2	0.046137234721396
0	666	33.3	0.046137234721396
0	668	33.4	0.046137234721396
0	670	33.5	0.046137234721396
0	672	33.6	0.046137234721396
0	673	33.633348691	0.046137234721396
0	674	33.7	0.046137234721396
0	676	33.8	0.046137234721396
0	678	33.9	0.046137234721396
0	680	34	0.046137234721396
0	682	34.1	0.046137234721396
0	684	34.2	0.046137234721396
0	686	34.3	0.046137234721396
0	687	34.3721668	0.046137234721396
0	688	34.4	0.046137234721396
0	690	34.5	0.046137234721396
0	692	34.6	0.046137234721396
0	694	34.7	0.045675862374182
0	694	34.7	0.045675862374182
0	696	34.8	0.045675862374182
0	697	34.814869978	0.045675862374182
0	698	34.9	0.045675862374182
0	700	35	0.045675862374182
0	702	35.1	0.045675862374182
0	704	35.2	0.045675862374182
0	705	35.290273492	0.045675862374182
0	706	35.3	0.045675862374182
0	708	35.4	0.045675862374182
0	710	35.5	0.045675862374182
0	712	35.6	0.045675862374182
0	714	35.7	0.045675862374182
0	716	35.8	0.045675862374182
0	717	35.807415085	0.045675862374182
0	718	35.9	0.045675862374182
0	720	36	0.045675862374182
0	722	36.1	0.04521910375044
0	722	36.1	0.04521910375044
0	724	36.2	0.04521910375044
0	726	36.3	0.04521910375044
0	727	36.360602014	0.04521910375044
0	728	36.4	0.04521910375044
0	730	36.5	0.04521910375044
0	732	36.6	0.04521910375044
0	734	36.7	0.04521910375044
0	736	36.8	0.04521910375044
0	737	36.85652341	0.04521910375044
0	738	36.9	0.04521910375044
0	740	37	0.04521910375044
0	742	37.1	0.04521910375044
0	744	37.2	0.04521910375044
0	746	37.3	0.04521910375044
0	748	37.4	0.04521910375044
0	750	37.5	0.04521910375044
0	751	37.560954007	0.044766912712936
0	751	37.560954007	0.044766912712936
0	752	37.6	0.044766912712936
0	754	37.7	0.044766912712936
0	756	37.8	0.044766912712936
0	758	37.9	0.044766912712936
0	760	38	0.044766912712936
0	762	38.1	0.044766912712936
0	764	38.2	0.044766912712936
0	766	38.3	0.044766912712936
0	768	38.4	0.044766912712936
0	769	38.461495417	0.044766912712936
0	770	38.5	0.044766912712936
0	772	38.6	0.044766912712936
0	774	38.7	0.044766912712936
0	776	38.8	0.044766912712936
0	778	38.9	0.044766912712936
0	780	39	0.044766912712936
0	782	39.1	0.044319243585806
0	782	39.1	0.044319243585806
0	783	39.169606294	0.044319243585806
0	784	39.2	0.044319243585806
0	786	39.3	0.044319243585806
0	788	39.4	0.044319243585806
0	790	39.5	0.044319243585806
0	792	39.6	0.044319243585806
0	794	39.7	0.044319243585806
0	795	39.790414639	0.044319243585806
0	796	39.8	0.044319243585806
0	798	39.9	0.044319243585806
0	800	40	0.044319243585806
0	802	40.1	0.044319243585806
0	804	40.2	0.044319243585806
0	806	40.3	0.044319243585806
0	808	40.4	0.044319243585806
0	810	40.5	0.044319243585806
0	812	40.6	0.043876051149948
0	812	40.6	0.043876051149948
0	814	40.7	0.043876051149948
0	815	40.703107609	0.043876051149948
0	816	40.8	0.043876051149948
0	818	40.9	0.043876051149948
0	820	41	0.043876051149948
0	822	41.1	0.043876051149948
0	824	41.2	0.043876051149948
0	825	41.235763126	0.043876051149948
0	826	41.3	0.043876051149948
0	828	41.4	0.043876051149948
0	830	41.5	0.043876051149948
0	832	41.6	0.043876051149948
0	834	41.7	0.043876051149948
0	836	41.8	0.043876051149948
0	837	41.80185238	0.043876051149948
0	838	41.9	0.043876051149948
0	840	42	0.043437290638449
0	840	42	0.043437290638449
0	842	42.1	0.043437290638449
0	844	42.2	0.043437290638449
0	846	42.3	0.043437290638449
0	848	42.4	0.043437290638449
0	849	42.454314061	0.043437290638449
0	850	42.5	0.043437290638449
0	852	42.6	0.043437290638449
0	854	42.7	0.043437290638449
0	856	42.8	0.043437290638449
0	858	42.9	0.043437290638449
0	860	43	0.043437290638449
0	861	43.014761539	0.043437290638449
0	862	43.1	0.043437290638449
0	864	43.2	0.043437290638449
0	866	43.3	0.043437290638449
0	868	43.4	0.043437290638449
0	869	43.426762516	0.043002917732064
0	869	43.426762516	0.043002917732064
0	870	43.5	0.043002917732064
0	872	43.6	0.043002917732064
0	874	43.7	0.043002917732064
0	876	43.8	0.043002917732064
0	877	43.872259678	0.043002917732064
0	878	43.9	0.043002917732064
0	880	44	0.043002917732064
0	882	44.1	0.043002917732064
0	883	44.155859317	0.043002917732064
0	884	44.2	0.043002917732064
0	886	44.3	0.043002917732064
0	888	44.4	0.043002917732064
0	890	44.5	0.043002917732064
0	892	44.6	0.043002917732064
0	894	44.7	0.043002917732064
0	895	44.730462901	0.043002917732064
0	896	44.8	0.042572888554744
0	896	44.8	0.042572888554744
0	898	44.9	0.042572888554744
0	900	45	0.042572888554744
0	902	45.1	0.042572888554744
0	904	45.2	0.042572888554744
0	906	45.3	0.042572888554744
0	907	45.386714773	0.042572888554744
0	908	45.4	0.042572888554744
0	910	45.5	0.042572888554744
0	912	45.6	0.042572888554744
0	914	45.7	0.042572888554744
0	916	45.8	0.042572888554744
0	918	45.9	0.042572888554744
0	919	45.990270808	0.042572888554744
0	920	46	0.042572888554744
0	922	46.1	0.042572888554744
0	924	46.2	0.042572888554744
0	926	46.3	0.042147159669196
0	926	46.3	0.042147159669196
0	928	46.4	0.042147159669196
0	930	46.5	0.042147159669196
0	932	46.6	0.042147159669196
0	933	46.623329659	0.042147159669196
0	934	46.7	0.042147159669196
0	936	46.8	0.042147159669196
0	938	46.9	0.042147159669196
0	941	47	0.042147159669196
0	943	47.1	0.042147159669196
0	944	47.193542134	0.042147159669196
0	945	47.2	0.042147159669196
0	947	47.3	0.042147159669196
0	949	47.4	0.042147159669196
0	951	47.5	0.042147159669196
0	953	47.6	0.042147159669196
0	955	47.7	0.042147159669196
0	956	47.782726531	0.042147159669196
0	957	47.8	0.042147159669196
0	959	47.9	0.042147159669196
0	961	48	0.042147159669196
0	963	48.1	0.042147159669196
0	965	48.2	0.042147159669196
0	967	48.3	0.042147159669196
0	968	48.347451238	0.042147159669196
0	969	48.4	0.042147159669196
0	971	48.5	0.042147159669196
0	973	48.6	0.042147159669196
0	975	48.7	0.042147159669196
0	977	48.8	0.042147159669196
0	979	48.9	0.042147159669196
0	980	48.963818521	0.042147159669196
0	981	49	0.042147159669196
0	983	49.1	0.042147159669196
0	985	49.2	0.042147159669196
0	987	49.3	0.042147159669196
0	989	49.4	0.042147159669196
0	990	49.439812522	0.042147159669196
0	991	49.5	0.042147159669196
0	993	49.6	0.042147159669196
0	995	49.7	0.042147159669196
0	997	49.8	0.042147159669196
0	999	49.9	0.042147159669196
0	1000	49.98389272	0.042147159669196
0	1001	50	0.042147159669196
0	1003	50.1	0.042147159669196
0	1005	50.2	0.042147159669196
0	1007	50.3	0.042147159669196
0	1009	50.4	0.042147159669196
0	1011	50.5	0.042147159669196
0	1012	50.535468184	0.042147159669196
0	1013	50.6	0.042147159669196
0	1016	50.7	0.042147159669196
0	1018	50.8	0.042147159669196
0	1020	50.9	0.042147159669196
0	1022	51	0.042147159669196
0	1023	51.095071264	0.042147159669196
0	1024	51.1	0.042147159669196
0	1026	51.2	0.042147159669196
0	1028	51.3	0.042147159669196
0	1030	51.4	0.042147159669196
0	1032	51.5	0.042147159669196
0	1034	51.6	0.042147159669196
0	1036	51.7	0.042147159669196
0	1036	51.725913658	0.042147159669196
0	1038	51.8	0.042147159669196
0	1040	51.9	0.042147159669196
0	1042	52	0.041725688072504
0	1042	52	0.041725688072504
0	1044	52.1	0.041725688072504
0	1046	52.2	0.041725688072504
0	1047	52.287077248	0.041725688072504
0	1048	52.3	0.041725688072504
0	1050	52.4	0.041725688072504
0	1052	52.5	0.041725688072504
0	1054	52.6	0.041725688072504
0	1056	52.7	0.041725688072504
0	1058	52.8	0.041725688072504
0	1060	52.9	0.041725688072504
0	1060	52.902399988	0.041725688072504
0	1062	53	0.041725688072504
0	1064	53.1	0.041725688072504
0	1066	53.2	0.041725688072504
0	1068	53.3	0.041725688072504
0	1070	53.4	0.041725688072504
0	1071	53.486982112	0.041308431191779
0	1071	53.486982112	0.041308431191779
0	1072	53.5	0.041308431191779
0	1074	53.6	0.041308431191779
0	1076	53.7	0.041308431191779
0	1078	53.8	0.041308431191779
0	1080	53.9	0.041308431191779
0	1082	54	0.041308431191779
0	1084	54.1	0.041308431191779
0	1084	54.149931193	0.041308431191779
0	1086	54.2	0.041308431191779
0	1088	54.3	0.041308431191779
0	1090	54.4	0.041308431191779
0	1092	54.5	0.041308431191779
0	1094	54.6	0.041308431191779
0	1096	54.7	0.041308431191779
0	1096	54.704875417	0.041308431191779
0	1098	54.8	0.041308431191779
0	1100	54.9	0.040895346879862
0	1100	54.9	0.040895346879862
0	1102	55	0.040895346879862
0	1104	55.1	0.040895346879862
0	1105	55.194111151	0.040895346879862
0	1106	55.2	0.040895346879862
0	1108	55.3	0.040895346879862
0	1110	55.4	0.040895346879862
0	1112	55.5	0.040895346879862
0	1114	55.6	0.040895346879862
0	1116	55.7	0.040895346879862
0	1116	55.717266544	0.040895346879862
0	1118	55.8	0.040895346879862
0	1120	55.9	0.040895346879862
0	1122	56	0.040895346879862
0	1124	56.1	0.040895346879862
0	1126	56.2	0.040895346879862
0	1126	56.225151793	0.040895346879862
0	1128	56.3	0.040486393411063
0	1128	56.3	0.040486393411063
0	1130	56.4	0.040486393411063
0	1132	56.5	0.040486393411063
0	1134	56.6	0.040486393411063
0	1136	56.7	0.040486393411063
0	1136	56.783714134	0.040486393411063
0	1138	56.8	0.040486393411063
0	1140	56.9	0.040486393411063
0	1142	57	0.040486393411063
0	1144	57.1	0.040486393411063
0	1146	57.2	0.040486393411063
0	1147	57.287621233	0.040486393411063
0	1148	57.3	0.040486393411063
0	1150	57.4	0.040486393411063
0	1152	57.5	0.040486393411063
0	1154	57.6	0.040486393411063
0	1156	57.7	0.040486393411063
0	1158	57.8	0.040081529476952
0	1158	57.8	0.040081529476952
0	1158	57.829058365	0.040081529476952
0	1160	57.9	0.040081529476952
0	1162	58	0.040081529476952
0	1164	58.1	0.040081529476952
0	1166	58.2	0.040081529476952
0	1168	58.3	0.040081529476952
0	1168	58.317228532	0.040081529476952
0	1170	58.4	0.040081529476952
0	1172	58.5	0.040081529476952
0	1174	58.6	0.040081529476952
0	1174	58.60470679	0.040081529476952
0	1176	58.7	0.040081529476952
0	1178	58.8	0.040081529476952
0	1180	58.9	0.040081529476952
0	1182	59	0.040081529476952
0	1184	59.1	0.040081529476952
0	1185	59.196985345	0.039680714182183
0	1185	59.196985345	0.039680714182183
0	1186	59.2	0.039680714182183
0	1188	59.3	0.039680714182183
0	1190	59.4	0.039680714182183
0	1192	59.5	0.039680714182183
0	1194	59.6	0.039680714182183
0	1196	59.7	0.039680714182183
0	1197	59.790882787	0.039680714182183
0	1198	59.8	0.039680714182183
0	1200	59.9	0.039680714182183
0	1202	60	0.039680714182183
0	1204	60.1	0.039680714182183
0	1206	60.2	0.039680714182183
0	1208	60.3	0.039680714182183
0	1208	60.344662399	0.039680714182183
0	1210	60.4	0.039680714182183
0	1212	60.5	0.039680714182183
0	1214	60.6	0.039283907040361
0	1214	60.6	0.039283907040361
0	1216	60.7	0.039283907040361
0	1218	60.8	0.039283907040361
0	1220	60.9	0.039283907040361
0	1221	60.995165872	0.039283907040361
0	1222	61	0.039283907040361
0	1224	61.1	0.039283907040361
0	1226	61.2	0.039283907040361
0	1228	61.3	0.039283907040361
0	1230	61.4	0.039283907040361
0	1232	61.5	0.039283907040361
0	1234	61.6	0.039283907040361
0	1234	61.630357966	0.039283907040361
0	1236	61.7	0.039283907040361
0	1238	61.8	0.039283907040361
0	1240	61.9	0.039283907040361
0	1242	62	0.039283907040361
0	1244	62.1	0.038891067969957
0	1244	62.1	0.038891067969957
0	1245	62.199925906	0.038891067969957
0	1246	62.2	0.038891067969957
0	1248	62.3	0.038891067969957
0	1250	62.4	0.038891067969957
0	1252	62.5	0.038891067969957
0	1254	62.6	0.038891067969957
0	1256	62.7	0.038891067969957
0	1256	62.717580046	0.038891067969957
0	1258	62.8	0.038891067969957
0	1260	62.9	0.038891067969957
0	1262	63	0.038891067969957
0	1264	63.1	0.038891067969957
0	1266	63.2	0.038891067969957
0	1268	63.3	0.038891067969957
0	1268	63.329395363	0.038891067969957
0	1270	63.4	0.038891067969957
0	1272	63.5	0.038502157290258
0	1272	63.5	0.038502157290258
0	1274	63.6	0.038502157290258
0	1276	63.7	0.038502157290258
0	1278	63.8	0.038502157290258
0	1278	63.869240884	0.038502157290258
0	1280	63.9	0.038502157290258
0	1282	64	0.038502157290258
0	1284	64.1	0.038502157290258
0	1286	64.2	0.038502157290258
0	1287	64.288108912	0.038502157290258
0	1288	64.3	0.038502157290258
0	1290	64.4	0.038502157290258
0	1292	64.5	0.038502157290258
0	1294	64.6	0.038502157290258
0	1296	64.7	0.038502157290258
0	1298	64.8	0.038502157290258
0	1300	64.9	0.038502157290258
0	1300	64.926444793	0.038502157290258
0	1302	65	0.038502157290258
0	1304	65.1	0.038502157290258
0	1306	65.2	0.038502157290258
0	1308	65.3	0.038502157290258
0	1310	65.4	0.038502157290258
0	1310	65.443123357	0.038502157290258
0	1312	65.5	0.038502157290258
0	1314	65.6	0.038502157290258
0	1316	65.7	0.038502157290258
0	1318	65.8	0.038502157290258
0	1320	65.9	0.038502157290258
0	1322	66	0.038502157290258
0	1322	66.06262648	0.038502157290258
0	1324	66.1	0.038502157290258
0	1326	66.2	0.038502157290258
0	1328	66.3	0.038502157290258
0	1330	66.4	0.038117135717355
0	1330	66.4	0.038117135717355
0	1332	66.5	0.038117135717355
0	1334	66.6	0.038117135717355
0	1334	66.63372412	0.038117135717355
0	1336	66.7	0.038117135717355
0	1338	66.8	0.038117135717355
0	1340	66.9	0.038117135717355
0	1342	67	0.038117135717355
0	1344	67.1	0.038117135717355
0	1346	67.2	0.038117135717355
0	1348	67.3	0.038117135717355
0	1350	67.4	0.038117135717355
0	1350	67.432210129	0.038117135717355
0	1352	67.5	0.038117135717355
0	1354	67.6	0.038117135717355
0	1356	67.7	0.038117135717355
0	1358	67.8	0.038117135717355
0	1360	67.9	0.037735964360182
0	1360	67.9	0.037735964360182
0	1361	67.994636266	0.037735964360182
0	1362	68	0.037735964360182
0	1364	68.1	0.037735964360182
0	1366	68.2	0.037735964360182
0	1368	68.3	0.037735964360182
0	1370	68.4	0.037735964360182
0	1372	68.5	0.037735964360182
0	1372	68.58189898	0.037735964360182
0	1374	68.6	0.037735964360182
0	1376	68.7	0.037735964360182
0	1378	68.8	0.037735964360182
0	1380	68.9	0.037735964360182
0	1382	69	0.037735964360182
0	1384	69.1	0.037735964360182
0	1384	69.127442947	0.037735964360182
0	1386	69.2	0.037735964360182
0	1388	69.3	0.03735860471658
0	1388	69.3	0.03735860471658
0	1390	69.4	0.03735860471658
0	1392	69.5	0.03735860471658
0	1394	69.6	0.03735860471658
0	1395	69.697577482	0.03735860471658
0	1396	69.7	0.03735860471658
0	1399	69.8	0.03735860471658
0	1402	69.9	0.03735860471658
0	1405	70	0.03735860471658
0	1407	70.1	0.03735860471658
0	1410	70.2	0.03735860471658
0	1413	70.3	0.03735860471658
0	1413	70.344228154	0.03735860471658
0	1415	70.4	0.03735860471658
0	1417	70.5	0.03735860471658
0	1419	70.6	0.03735860471658
0	1421	70.7	0.03735860471658
0	1423	70.8	0.03735860471658
0	1425	70.9	0.03735860471658
0	1425	70.951239226	0.03735860471658
0	1427	71	0.03735860471658
0	1429	71.1	0.03735860471658
0	1431	71.2	0.03735860471658
0	1433	71.3	0.03735860471658
0	1435	71.4	0.03735860471658
0	1437	71.5	0.03735860471658
0	1437	71.568359593	0.03735860471658
0	1439	71.6	0.03735860471658
0	1441	71.7	0.03735860471658
0	1443	71.8	0.03735860471658
0	1445	71.9	0.03735860471658
0	1447	72	0.03735860471658
0	1448	72.093887542	0.03735860471658
0	1449	72.1	0.03735860471658
0	1451	72.2	0.03735860471658
0	1453	72.3	0.03735860471658
0	1455	72.4	0.03735860471658
0	1457	72.5	0.03735860471658
0	1459	72.6	0.03735860471658
0	1460	72.627836814492	0.03735860471658
0	1461	72.663185635347	0.0375
0	1463	72.7	0.037647257458612
0	1463	72.751792921	0.037854429142612
0	1465	72.788185635347	0.038
0	1466	72.8	0.038047257458612
0	1468	72.9	0.038447257458612
0	1469	72.913185635347	0.0385
0	1471	73	0.038847257458612
0	1472	73.038185635347	0.039
0	1474	73.1	0.039247257458612
0	1475	73.163185635347	0.0395
0	1477	73.2	0.039647257458612
0	1479	73.288185635347	0.04
0	1480	73.3	0.040047257458612
0	1482	73.4	0.040447257458612
0	1483	73.413185635347	0.0405
0	1485	73.5	0.040847257458612
0	1486	73.538185635347	0.041
0	1488	73.6	0.041247257458612
0	1488	73.629920524	0.041366939554612
0	1489	73.663185635347	0.0415
0	1491	73.7	0.041647257458612
0	1493	73.788185635347	0.042
0	1494	73.8	0.042047257458612
0	1496	73.9	0.042447257458612
0	1497	73.913185635347	0.0425
0	1499	74	0.042847257458612
0	1500	74.038185635347	0.043
0	1502	74.1	0.043247257458612
0	1502	74.153034397	0.043459395046612
0	1503	74.163185635347	0.0435
0	1505	74.2	0.043647257458612
0	1507	74.288185635347	0.044
0	1508	74.3	0.043606784884026
0	1508	74.3	0.043606784884026
0	1510	74.4	0.044006784884026
0	1511	74.413185635347	0.0445
0	1513	74.5	0.044847257458612
0	1514	74.538185635347	0.045
0	1516	74.6	0.045247257458612
0	1517	74.663185635347	0.0455
0	1519	74.7	0.045647257458612
0	1521	74.788185635347	0.046
0	1522	74.8	0.046047257458612
0	1524	74.9	0.046447257458612
0	1525	74.913185635347	0.0465
0	1527	75	0.046847257458612
0	1528	75.038185635347	0.047
0	1529	75.090160456	0.047207899282612
0	1530	75.1	0.047247257458612
0	1531	75.163185635347	0.0475
0	1533	75.2	0.047647257458612
0	1535	75.288185635347	0.048
0	1536	75.3	0.048047257458612
0	1538	75.4	0.048447257458612
0	1539	75.413185635347	0.0485
0	1541	75.5	0.048847257458612
0	1542	75.538185635347	0.049
0	1544	75.6	0.049247257458612
0	1545	75.663185635347	0.0495
0	1547	75.7	0.049647257458612
0	1549	75.788185635347	0.05
0	1550	75.8	0.05
0	1552	75.9	0.05
0	1554	76	0.05
0	1556	76.1	0.05
0	1557	76.185376615	0.05
0	1558	76.2	0.05
0	1560	76.3	0.05
0	1562	76.4	0.05
0	1564	76.5	0.05
0	1566	76.6	0.05
0	1568	76.7	0.05
0	1570	76.8	0.05
0	1572	76.9	0.0495
0	1572	76.9	0.0495
0	1574	77	0.0499
0	1575	77.094118609	0.05
0	1576	77.1	0.05
0	1578	77.2	0.05
0	1580	77.3	0.05
0	1582	77.4	0.05
0	1584	77.5	0.05
0	1586	77.6	0.05
0	1587	77.69790094	0.05
0	1588	77.7	0.05
0	1590	77.8	0.05
0	1592	77.9	0.05
0	1594	78	0.05
0	1596	78.1	0.05
0	1598	78.2	0.05
0	1600	78.3	0.05
0	1600	78.314306875	0.05
0	1602	78.4	0.05
0	1604	78.5	0.05
0	1606	78.6	0.05
0	1608	78.7	0.05
0	1610	78.8	0.05
0	1612	78.9	0.05
0	1612	78.972107248	0.05
0	1614	79	0.05
0	1616	79.1	0.05
0	1618	79.2	0.05
0	1620	79.3	0.05
0	1622	79.4	0.05
0	1624	79.5	0.05
0	1624	79.558177639	0.05
0	1626	79.6	0.05
0	1628	79.7	0.05
0	1630	79.8	0.0495
0	1630	79.8	0.0495
0	1632	79.9	0.0499
0	1634	80	0.05
0	1634	80.026988647	0.05
0	1636	80.1	0.05
0	1638	80.2	0.05
0	1640	80.3	0.05
0	1642	80.4	0.05
0	1644	80.5	0.05
0	1644	80.566366762	0.05
0	1646	80.6	0.05
0	1648	80.7	0.05
0	1650	80.8	0.05
0	1653	80.9	0.05
0	1655	81	0.05
0	1657	81.1	0.05
0	1659	81.2	0.05
0	1660	81.291139408	0.05
0	1661	81.3	0.05
0	1663	81.4	0.05
0	1665	81.5	0.05
0	1667	81.6	0.05
0	1669	81.7	0.05
0	1671	81.8	0.05
0	1673	81.9	0.05
0	1675	82	0.05
0	1676	82.093361116	0.05
0	1677	82.1	0.05
0	1679	82.2	0.05
0	1681	82.3	0.05
0	1683	82.4	0.05
0	1685	82.5	0.05
0	1687	82.6	0.05
0	1689	82.7	0.05
0	1691	82.8	0.05
0	1693	82.9	0.05
0	1693	82.944087034	0.05
0	1695	83	0.05
0	1697	83.1	0.05
0	1699	83.2	0.05
0	1701	83.3	0.05
0	1703	83.4	0.05
0	1705	83.5	0.05
0	1707	83.6	0.05
0	1709	83.7	0.05
0	1711	83.8	0.05
0	1711	83.820280801	0.05
0	1713	83.9	0.05
0	1715	84	0.05
0	1717	84.1	0.05
0	1719	84.2	0.05
0	1721	84.3	0.05
0	1723	84.4	0.05
0	1725	84.5	0.05
0	1725	84.526327093	0.05
0	1727	84.6	0.05
0	1729	84.7	0.05
0	1731	84.8	0.05
0	1733	84.9	0.05
0	1735	85	0.05
0	1737	85.1	0.05
0	1739	85.2	0.05
0	1741	85.3	0.05
0	1741	85.321512304	0.05
0	1743	85.4	0.05
0	1745	85.5	0.05
0	1747	85.6	0.05
0	1749	85.7	0.05
0	1751	85.8	0.05
0	1753	85.9	0.05
0	1755	86	0.05
0	1757	86.1	0.05
0	1758	86.186041732	0.05
0	1759	86.2	0.05
0	1761	86.3	0.05
0	1763	86.4	0.05
0	1765	86.5	0.05
0	1767	86.6	0.05
0	1769	86.7	0.05
0	1771	86.8	0.05
0	1771	86.875665748	0.05
0	1773	86.9	0.05
0	1775	87	0.05
0	1777	87.1	0.05
0	1779	87.2	0.05
0	1781	87.3	0.05
0	1783	87.4	0.05
0	1785	87.5	0.05
0	1785	87.520506088	0.05
0	1787	87.6	0.05
0	1789	87.7	0.05
0	1791	87.8	0.05
0	1793	87.9	0.05
0	1795	88	0.05
0	1797	88.1	0.05
0	1797	88.101285487	0.05
0	1799	88.2	0.05
0	1801	88.3	0.05
0	1803	88.4	0.05
0	1805	88.5	0.05
0	1807	88.6	0.05
0	1809	88.7	0.05
0	1809	88.705515874	0.0495
0	1809	88.705515874	0.0495
0	1811	88.8	0.049877936504
0	1813	88.9	0.05
0	1815	89	0.05
0	1817	89.1	0.05
0	1819	89.2	0.05
0	1819	89.265949375	0.05
0	1821	89.3	0.05
0	1823	89.4	0.05
0	1825	89.5	0.05
0	1827	89.6	0.05
0	1829	89.7	0.05
0	1831	89.8	0.05
0	1833	89.9	0.05
0	1834	89.99764201	0.05
0	1835	90	0.05
0	1837	90.1	0.05
0	1839	90.2	0.05
0	1841	90.3	0.05
0	1843	90.4	0.05
0	1845	90.5	0.05
0	1845	90.518206627	0.05
0	1847	90.6	0.05
0	1849	90.7	0.05
0	1851	90.8	0.05
0	1853	90.9	0.05
0	1855	91	0.05
0	1857	91.1	0.05
0	1857	91.118150842	0.05
0	1859	91.2	0.05
0	1861	91.3	0.05
0	1863	91.4	0.05
0	1865	91.5	0.05
0	1867	91.6	0.05
0	1868	91.697535184	0.05
0	1869	91.7	0.05
0	1871	91.8	0.05
0	1873	91.9	0.05
0	1875	92	0.05
0	1877	92.1	0.05
0	1879	92.2	0.05
0	1881	92.3	0.05
0	1883	92.4	0.05
0	1883	92.420104237	0.05
0	1885	92.5	0.05
0	1887	92.6	0.05
0	1889	92.7	0.05
0	1891	92.8	0.05
0	1891	92.858764381	0.05
0	1893	92.9	0.05
0	1895	93	0.05
0	1897	93.1	0.05
0	1899	93.2	0.05
0	1901	93.3	0.05
0	1903	93.4	0.05
0	1903	93.424378	0.05
0	1905	93.5	0.05
0	1907	93.6	0.05
0	1909	93.7	0.05
0	1911	93.8	0.05
0	1913	93.9	0.05
0	1915	94	0.05
0	1915	94.029764092	0.05
0	1917	94.1	0.05
0	1919	94.2	0.05
0	1921	94.3	0.05
0	1923	94.4	0.05
0	1925	94.5	0.05
0	1925	94.571409646	0.0495
0	1925	94.571409646	0.0495
0	1927	94.6	0.049614361416
0	1929	94.7	0.05
0	1931	94.8	0.05
0	1933	94.9	0.05
0	1935	95	0.05
0	1937	95.1	0.05
0	1939	95.2	0.05
0	1939	95.21868688	0.05
0	1941	95.3	0.05
0	1943	95.4	0.05
0	1945	95.5	0.05
0	1947	95.6	0.05
0	1949	95.7	0.05
0	1949	95.763019591	0.05
0	1951	95.8	0.05
0	1953	95.9	0.05
0	1955	96	0.05
0	1957	96.1	0.05
0	1959	96.2	0.05
0	1961	96.3	0.05
0	1961	96.366468655	0.05
0	1963	96.4	0.05
0	1965	96.5	0.05
0	1967	96.6	0.05
0	1969	96.7	0.05
0	1971	96.8	0.05
0	1973	96.9	0.05
0	1973	96.967181131	0.05
0	1975	97	0.05
0	1977	97.1	0.05
0	1979	97.2	0.05
0	1981	97.3	0.05
0	1983	97.4	0.05
0	1983	97.435334494	0.0495
0	1983	97.435334494	0.0495
0	1985	97.5	0.049758662024
0	1987	97.6	0.05
0	1989	97.7	0.05
0	1991	97.8	0.05
0	1993	97.9	0.05
0	1995	98	0.05
0	1995	98.016913867	0.05
0	1997	98.1	0.05
0	1999	98.188078159185	0.05
0	2001	98.288078159185	0.05
0	2003	98.388078159185	0.05
0	2005	98.488078159185	0.05
0	2007	98.588078159185	0.05
0	2007	98.594723146	0.05
0	2009	98.688078159185	0.05
0	2011	98.788078159185	0.05
0	2013	98.888078159185	0.05
0	2015	98.988078159185	0.05
0	2017	99.088078159185	0.05
0	2017	99.164400322	0.05
0	2019	99.188078159185	0.05
0	2021	99.288078159185	0.05
0	2023	99.388078159185	0.05
0	2025	99.488078159185	0.05
0	2027	99.588078159185	0.05
0	2029	99.688078159185	0.05
0	2029	99.697521127	0.05
0	2031	99.788078159185	0.05
0	2033	99.888078159185	0.05
0	2035	99.988078159185	0.05
0	2037	100.088078159185	0.05
0	2039	100.188078159185	0.05
0	2041	100.288078159185	0.05
0	2041	100.344197128	0.0495
0	2041	100.344197128	0.0495
0	2043	100.388078159185	0.04967552412474
0	2045	100.488078159185	0.05
0	2047	100.588078159185	0.05
0	2049	100.688078159185	0.05
0	2051	100.788078159185	0.05
0	2053	100.888078159185	0.05
0	2055	100.988078159185	0.05
0	2057	101.088078159185	0.05
0	2057	101.178401251	0.05
0	2059	101.188078159185	0.05
0	2061	101.288078159185	0.05
0	2063	101.388078159185	0.05
0	2065	101.488078159185	0.05
0	2067	101.588078159185	0.05
0	2069	101.688078159185	0.05
0	2071	101.788078159185	0.05
0	2071	101.796601348	0.0495
0	2071	101.796601348	0.0495
0	2073	101.888078159185	0.04986590724474
0	2075	101.988078159185	0.05
0	2077	102.088078159185	0.05
0	2079	102.188078159185	0.05
0	2079	102.228024193	0.05
0	2081	102.288078159185	0.05
0	2083	102.388078159185	0.05
0	2085	102.488078159185	0.05
0	2087	102.588078159185	0.05
0	2088	102.68727526	0.05
0	2089	102.688078159185	0.05
0	2091	102.788078159185	0.05
0	2093	102.888078159185	0.05
0	2095	102.988078159185	0.05
0	2097	103.088078159185	0.05
0	2099	103.188078159185	0.05
0	2099	103.234747111	0.0495
0	2099	103.234747111	0.0495
0	2101	103.288078159185	0.04971332419274
0	2103	103.388078159185	0.05
0	2105	103.488078159185	0.05
0	2107	103.588078159185	0.05
0	2109	103.688078159185	0.05
0	2111	103.788078159185	0.05
0	2111	103.797639763	0.05
0	2113	103.888078159185	0.05
0	2115	103.988078159185	0.05
0	2117	104.088078159185	0.05
0	2119	104.188078159185	0.05
0	2121	104.288078159185	0.05
0	2121	104.356947391	0.05
0	2123	104.388078159185	0.05
0	2125	104.488078159185	0.05
0	2127	104.588078159185	0.05
0	2129	104.688078159185	0.05
0	2131	104.788078159185	0.05
0	2133	104.888078159185	0.05
0	2135	104.988078159185	0.05
0	2135	105.053439757	0.05
0	2137	105.088078159185	0.05
0	2139	105.188078159185	0.05
0	2141	105.288078159185	0.05
0	2143	105.388078159185	0.05
0	2145	105.488078159185	0.05
0	2147	105.588078159185	0.05
0	2147	105.649181347	0.05
0	2149	105.688078159185	0.05
0	2151	105.788078159185	0.05
0	2153	105.888078159185	0.05
0	2155	105.988078159185	0.05
0	2157	106.088078159185	0.05
0	2157	106.151281033	0.0495
0	2157	106.151281033	0.0495
0	2159	106.188078159185	0.04964718850474
0	2161	106.288078159185	0.05
0	2163	106.388078159185	0.05
0	2165	106.488078159185	0.05
0	2167	106.588078159185	0.05
0	2167	106.672464265	0.05
0	2169	106.688078159185	0.05
0	2171	106.788078159185	0.05
0	2173	106.888078159185	0.05
0	2175	106.988078159185	0.05
0	2177	107.088078159185	0.05
0	2179	107.188078159185	0.05
0	2181	107.288078159185	0.05
0	2183	107.388078159185	0.05
0	2183	107.422234489	0.05
0	2185	107.488078159185	0.05
0	2187	107.588078159185	0.05
0	2189	107.688078159185	0.05
0	2191	107.788078159185	0.05
0	2193	107.888078159185	0.05
0	2195	107.988078159185	0.05
0	2197	108.088078159185	0.05
0	2197	108.170890858	0.05
0	2199	108.188078159185	0.05
0	2201	108.288078159185	0.05
0	2203	108.388078159185	0.05
0	2205	108.488078159185	0.05
0	2207	108.588078159185	0.05
0	2209	108.688078159185	0.05
0	2211	108.788078159185	0.05
0	2213	108.888078159185	0.05
0	2215	108.988078159185	0.05
0	2215	109.060208728	0.05
0	2217	109.088078159185	0.05
0	2219	109.188078159185	0.05
0	2221	109.288078159185	0.05
0	2223	109.388078159185	0.05
0	2225	109.488078159185	0.05
0	2227	109.588078159185	0.05
0	2229	109.688078159185	0.05
0	2229	109.778403124	0.05
0	2231	109.788078159185	0.05
0	2233	109.888078159185	0.05
0	2235	109.988078159185	0.05
0	2237	110.088078159185	0.05
0	2239	110.188078159185	0.05
0	2241	110.288078159185	0.05
0	2243	110.387957281695	0.05
0	2244	110.388078159185	0.05
0	2246	110.488078159185	0.05
0	2246	110.499644671	0.05
0	2248	110.588078159185	0.05
0	2250	110.688078159185	0.05
0	2252	110.788078159185	0.05
0	2254	110.888078159185	0.05
0	2256	110.988078159185	0.05
0	2258	111.088078159185	0.05
0	2260	111.188078159185	0.05
0	2260	111.189543052	0.05
0	2262	111.288078159185	0.05
0	2264	111.388078159185	0.05
0	2266	111.488078159185	0.05
0	2268	111.588078159185	0.05
0	2270	111.688078159185	0.05
0	2272	111.788078159185	0.05
0	2274	111.888078159185	0.05
0	2276	111.988078159185	0.05
0	2276	111.994301269	0.05
0	2278	112.088078159185	0.05
0	2280	112.188078159185	0.05
0	2282	112.288078159185	0.05
0	2284	112.388078159185	0.05
0	2286	112.488078159185	0.05
0	2287	112.5690166	0.05
0	2288	112.588078159185	0.05
0	2290	112.688078159185	0.05
0	2292	112.788078159185	0.05
0	2294	112.888078159185	0.05
0	2296	112.988078159185	0.05
0	2298	113.088078159185	0.05
0	2299	113.153872624	0.05
0	2300	113.188078159185	0.05
0	2302	113.288078159185	0.05
0	2304	113.388078159185	0.05
0	2306	113.488078159185	0.0495
0	2306	113.488078159185	0.0495
0	2308	113.588078159185	0.0495
0	2310	113.688078159185	0.0495
0	2311	113.73994621	0.0495
0	2312	113.788078159185	0.0495
0	2314	113.888078159185	0.0495
0	2316	113.988078159185	0.0495
0	2318	114.088078159185	0.0495
0	2320	114.188078159185	0.0495
0	2321	114.28019569	0.0495
0	2322	114.288078159185	0.0495
0	2324	114.388078159185	0.0495
0	2326	114.488078159185	0.0495
0	2328	114.588078159185	0.0495
0	2330	114.688078159185	0.0495
0	2332	114.788078159185	0.0495
0	2333	114.884615935	0.0495
0	2334	114.888078159185	0.049005
0	2334	114.888078159185	0.049005
0	2336	114.988078159185	0.049005
0	2338	115.088078159185	0.049005
0	2340	115.188078159185	0.049005
0	2342	115.288078159185	0.049005
0	2344	115.388078159185	0.049005
0	2344	115.412081452	0.049005
0	2346	115.488078159185	0.049005
0	2348	115.588078159185	0.049005
0	2350	115.688078159185	0.049005
0	2352	115.788078159185	0.049005
0	2354	115.888078159185	0.049005
0	2356	115.988078159185	0.049005
0	2357	116.046333769	0.049005
0	2358	116.088078159185	0.049005
0	2360	116.138987064781	0.049005
0	2361	116.188078159185	0.049201364377616
0	2363	116.262737064781	0.0495
0	2364	116.288078159185	0.04910535073384
0	2364	116.288078159185	0.04910535073384
0	2366	116.387737064781	0.05
0	2367	116.388078159185	0.05
0	2369	116.488078159185	0.05
0	2371	116.588078159185	0.05
0	2372	116.655997021	0.05
0	2373	116.688078159185	0.05
0	2375	116.788078159185	0.05
0	2377	116.888078159185	0.05
0	2379	116.988078159185	0.05
0	2381	117.088078159185	0.05
0	2383	117.188078159185	0.05
0	2384	117.2433826	0.05
0	2385	117.288078159185	0.05
0	2387	117.388078159185	0.05
0	2389	117.488078159185	0.05
0	2391	117.588078159185	0.05
0	2393	117.688078159185	0.05
0	2395	117.788078159185	0.05
0	2397	117.888078159185	0.05
0	2397	117.890307163	0.05
0	2399	117.988078159185	0.05
0	2401	118.088078159185	0.05
0	2403	118.188078159185	0.05
0	2405	118.288078159185	0.05
0	2407	118.388078159185	0.05
0	2408	118.440766954	0.05
0	2409	118.488078159185	0.05
0	2411	118.588078159185	0.05
0	2413	118.688078159185	0.05
0	2415	118.788078159185	0.05
0	2417	118.888078159185	0.05
0	2418	118.938903661	0.05
0	2419	118.988078159185	0.05
0	2421	119.088078159185	0.05
0	2423	119.188078159185	0.05
0	2425	119.288078159185	0.05
0	2427	119.388078159185	0.05
0	2428	119.4774538	0.05
0	2429	119.488078159185	0.05
0	2431	119.588078159185	0.05
0	2433	119.688078159185	0.05
0	2435	119.788078159185	0.05
0	2437	119.888078159185	0.05
0	2439	119.988078159185	0.05
0	2441	120.088078159185	0.05
0	2441	120.090714424	0.05
0	2443	120.188078159185	0.05
0	2445	120.288078159185	0.05
0	2447	120.388078159185	0.05
0	2449	120.488078159185	0.05
0	2451	120.588078159185	0.05
0	2452	120.644674057	0.05
0	2453	120.688078159185	0.05
0	2455	120.788078159185	0.05
0	2457	120.888078159185	0.05
0	2459	120.988078159185	0.05
0	2461	121.088078159185	0.05
0	2463	121.188078159185	0.05
0	2464	121.284059497	0.05
0	2465	121.288078159185	0.05
0	2467	121.388078159185	0.05
0	2469	121.488078159185	0.05
0	2471	121.588078159185	0.05
0	2473	121.688078159185	0.05
0	2475	121.788078159185	0.05
0	2477	121.888078159185	0.05
0	2479	121.988078159185	0.05
0	2481	122.088078159185	0.05
0	2483	122.188078159185	0.05
0	2485	122.288078159185	0.05
0	2485	122.328000235	0.05
0	2487	122.388078159185	0.05
0	2489	122.488078159185	0.05
0	2491	122.588078159185	0.05
0	2493	122.688078159185	0.05
0	2495	122.788078159185	0.05
0	2497	122.888078159185	0.05
0	2499	122.988078159185	0.05
0	2501	123.088078159185	0.05
0	2503	123.188078159185	0.05
0	2503	123.206517223	0.05
0	2505	123.288078159185	0.05
0	2507	123.388078159185	0.05
0	2509	123.488078159185	0.05
0	2511	123.588078159185	0.05
0	2513	123.688078159185	0.05
0	2515	123.788078159185	0.05
0	2515	123.832115599	0.05
0	2517	123.888078159185	0.05
0	2519	123.988078159185	0.05
0	2521	124.088078159185	0.05
0	2523	124.188078159185	0.05
0	2525	124.288078159185	0.05
0	2527	124.388078159185	0.05
0	2529	124.488078159185	0.05
0	2529	124.496169907	0.05
0	2531	124.588078159185	0.05
0	2533	124.688078159185	0.05
0	2535	124.788078159185	0.05
0	2537	124.888078159185	0.05
0	2539	124.988078159185	0.05
0	2541	125.088078159185	0.05
0	2541	125.111194285	0.0495
0	2541	125.111194285	0.0495
0	2543	125.188078159185	0.04980753549674
0	2545	125.288078159185	0.05
0	2547	125.388078159185	0.05
0	2549	125.488078159185	0.05
0	2550	125.510148922112	0.05
0	2552	125.610148922112	0.05
0	2554	125.710148922112	0.05
0	2554	125.713237459	0.05
0	2556	125.810148922112	0.05
0	2558	125.910148922112	0.05
0	2560	126.010148922112	0.05
0	2562	126.110148922112	0.05
0	2564	126.210148922112	0.05
0	2566	126.310148922112	0.05
0	2568	126.410148922112	0.05
0	2569	126.468667831	0.05
0	2570	126.510148922112	0.0495
0	2570	126.510148922112	0.0495
0	2572	126.610148922112	0.0499
0	2574	126.710148922112	0.05
0	2576	126.810148922112	0.05
0	2578	126.910148922112	0.05
0	2580	127.010148922112	0.05
0	2582	127.110148922112	0.05
0	2584	127.210148922112	0.05
0	2585	127.257319666	0.05
0	2586	127.310148922112	0.05
0	2588	127.410148922112	0.05
0	2590	127.510148922112	0.05
0	2592	127.610148922112	0.05
0	2594	127.710148922112	0.05
0	2596	127.810148922112	0.05
0	2598	127.910148922112	0.05
0	2599	127.978269397	0.05
0	2600	128.010148922112	0.0495
0	2600	128.010148922112	0.0495
0	2602	128.110148922112	0.0499
0	2604	128.210148922112	0.05
0	2606	128.310148922112	0.05
0	2608	128.410148922112	0.05
0	2610	128.510148922112	0.05
0	2612	128.610148922112	0.05
0	2614	128.710148922112	0.05
0	2616	128.810148922112	0.05
0	2617	128.897236966	0.05
0	2618	128.910148922112	0.05
0	2620	129.010148922112	0.05
0	2622	129.110148922112	0.05
0	2624	129.210148922112	0.05
0	2626	129.310148922112	0.05
0	2628	129.410148922112	0.05
0	2630	129.510148922112	0.05
0	2632	129.610148922112	0.0495
0	2632	129.610148922112	0.0495
0	2634	129.710148922112	0.0499
0	2635	129.756580696	0.05
0	2636	129.810148922112	0.05
0	2638	129.910148922112	0.05
0	2640	130.010148922112	0.05
0	2642	130.110148922112	0.05
0	2644	130.210148922112	0.05
0	2646	130.310148922112	0.05
0	2648	130.410148922112	0.05
0	2650	130.510148922112	0.05
0	2651	130.598767846	0.05
0	2652	130.610148922112	0.05
0	2654	130.710148922112	0.05
0	2656	130.810148922112	0.05
0	2658	130.910148922112	0.05
0	2660	131.010148922112	0.05
0	2662	131.110148922112	0.0495
0	2662	131.110148922112	0.0495
0	2664	131.210148922112	0.0499
0	2666	131.310148922112	0.05
0	2667	131.384249659	0.05
0	2668	131.410148922112	0.05
0	2670	131.510148922112	0.05
0	2672	131.610148922112	0.05
0	2674	131.710148922112	0.05
0	2676	131.810148922112	0.05
0	2677	131.908440718	0.05
0	2678	131.910148922112	0.05
0	2680	132.010148922112	0.05
0	2682	132.110148922112	0.05
0	2684	132.210148922112	0.05
0	2686	132.310148922112	0.05
0	2688	132.410148922112	0.05
0	2690	132.510148922112	0.05
0	2692	132.610148922112	0.0495
0	2692	132.610148922112	0.0495
0	2692	132.612985567	0.049511346579552
0	2694	132.710148922112	0.0499
0	2696	132.810148922112	0.05
0	2698	132.910148922112	0.05
0	2700	133.010148922112	0.05
0	2702	133.110148922112	0.05
0	2703	133.206621073	0.05
0	2704	133.210148922112	0.05
0	2706	133.310148922112	0.05
0	2708	133.410148922112	0.05
0	2710	133.510148922112	0.05
0	2712	133.610148922112	0.05
0	2714	133.710148922112	0.05
0	2716	133.810148922112	0.05
0	2716	133.834827532	0.05
0	2718	133.910148922112	0.05
0	2720	134.010148922112	0.0495
0	2720	134.010148922112	0.0495
0	2722	134.110148922112	0.0499
0	2724	134.210148922112	0.05
0	2726	134.310148922112	0.05
0	2728	134.410148922112	0.05
0	2729	134.478810076	0.05
0	2730	134.510148922112	0.05
0	2732	134.610148922112	0.05
0	2734	134.710148922112	0.05
0	2736	134.810148922112	0.05
0	2738	134.910148922112	0.05
0	2740	135.010148922112	0.05
0	2741	135.045734254	0.05
0	2742	135.110148922112	0.05
0	2744	135.210148922112	0.05
0	2746	135.310148922112	0.05
0	2748	135.410148922112	0.05
0	2750	135.510148922112	0.0495
0	2750	135.510148922112	0.0495
0	2752	135.610148922112	0.0499
0	2753	135.701887	0.05
0	2754	135.710148922112	0.05
0	2756	135.810148922112	0.05
0	2758	135.910148922112	0.05
0	2760	136.010148922112	0.05
0	2762	136.110148922112	0.05
0	2764	136.210148922112	0.05
0	2765	136.238478505	0.05
0	2766	136.310148922112	0.05
0	2768	136.410148922112	0.05
0	2770	136.510148922112	0.05
0	2772	136.610148922112	0.05
0	2774	136.710148922112	0.05
0	2776	136.810148922112	0.05
0	2777	136.892547691	0.05
0	2778	136.910148922112	0.0495
0	2778	136.910148922112	0.0495
0	2780	137.010148922112	0.0499
0	2782	137.110148922112	0.05
0	2784	137.210148922112	0.05
0	2786	137.310148922112	0.05
0	2788	137.410148922112	0.05
0	2790	137.510148922112	0.05
0	2790	137.520059953	0.05
0	2792	137.610148922112	0.05
0	2794	137.710148922112	0.05
0	2796	137.810148922112	0.05
0	2798	137.910148922112	0.05
0	2800	138.010148922112	0.05
0	2802	138.110148922112	0.05
0	2802	138.130186234	0.05
0	2804	138.210148922112	0.05
0	2806	138.310148922112	0.05
0	2808	138.410148922112	0.0495
0	2808	138.410148922112	0.0495
0	2810	138.510148922112	0.0499
0	2812	138.610148922112	0.05
0	2814	138.710148922112	0.05
0	2816	138.810148922112	0.05
0	2818	138.910148922112	0.05
0	2818	138.925564117	0.05
0	2820	139.010148922112	0.05
0	2822	139.110148922112	0.05
0	2824	139.210148922112	0.05
0	2826	139.310148922112	0.05
0	2828	139.410148922112	0.05
0	2829	139.46941414	0.05
0	2830	139.510148922112	0.05
0	2832	139.610148922112	0.05
0	2834	139.710148922112	0.05
0	2836	139.810148922112	0.05
0	2838	139.910148922112	0.0495
0	2838	139.910148922112	0.0495
0	2840	140.010148922112	0.0499
0	2841	140.069677204	0.05
0	2842	140.110148922112	0.05
0	2844	140.210148922112	0.05
0	2846	140.310148922112	0.05
0	2848	140.410148922112	0.05
0	2850	140.510148922112	0.05
0	2851	140.539746877	0.05
0	2852	140.610148922112	0.05
0	2854	140.710148922112	0.05
0	2856	140.810148922112	0.05
0	2858	140.910148922112	0.05
0	2860	141.010148922112	0.05
0	2861	141.097020742	0.05
0	2862	141.110148922112	0.05
0	2864	141.210148922112	0.05
0	2866	141.310148922112	0.0495
0	2866	141.310148922112	0.0495
0	2868	141.410148922112	0.0499
0	2870	141.510148922112	0.05
0	2872	141.610148922112	0.05
0	2874	141.710148922112	0.05
0	2876	141.810148922112	0.05
0	2876	141.815005912	0.05
0	2878	141.910148922112	0.05
0	2880	142.010148922112	0.05
0	2882	142.110148922112	0.05
0	2884	142.210148922112	0.05
0	2886	142.310148922112	0.05
0	2887	142.371113956	0.05
0	2888	142.410148922112	0.05
0	2890	142.510148922112	0.05
0	2892	142.610148922112	0.05
0	2894	142.710148922112	0.05
0	2896	142.810148922112	0.0495
0	2896	142.810148922112	0.0495
0	2898	142.910148922112	0.0499
0	2899	142.979505292	0.05
0	2899	143.010148922112	0.05
1	0	0	0.004
1	461	23.08057828677	0
1	1460	72.627836814492	0.004
1	2243	110.387957281695	0
1	2360	116.138987064781	0.004
2	0	0	0.05
2	0	0.1	0.05
2	2	0.153224911	0.05
2	4	0.2	0.05
2	6	0.3	0.05
2	8	0.4	0.05
2	10	0.5	0.05
2	12	0.6	0.05
2	14	0.7	0.05
2	14	0.72519784	0.05
2	16	0.8	0.05
2	18	0.9	0.05
2	20	1	0.05
2	22	1.1	0.05
2	24	1.2	0.05
2	26	1.3	0.05
2	28	1.4	0.0495
2	28	1.4	0.0495
2	30	1.5	0.0499
2	30	1.509601558	0.049938406232
2	32	1.6	0.05
2	34	1.7	0.05
2	36	1.8	0.05
2	38	1.9	0.05
2	38	1.96590142	0.05
2	40	2	0.05
2	42	2.1	0.05
2	44	2.2	0.05
2	44	2.261620549	0.05
2	46	2.3	0.05
2	48	2.4	0.05
2	50	2.5	0.05
2	52	2.6	0.05
2	52	2.694197092	0.05
2	54	2.7	0.0495
2	54	2.7	0.0495
2	56	2.8	0.0499
2	58	2.9	0.05
2	60	3	0.05
2	62	3.1	0.05
2	64	3.2	0.05
2	64	3.245334952	0.05
2	66	3.3	0.05
2	68	3.4	0.05
2	70	3.5	0.05
2	72	3.6	0.05
2	72	3.693194368	0.05
2	74	3.7	0.05
2	76	3.8	0.05
2	78	3.9	0.05
2	80	4	0.05
2	82	4.1	0.05
2	82	4.180643191	0.0495
2	82	4.180643191	0.0495
2	84	4.2	0.049577427236
2	86	4.3	0.049977427236
2	88	4.4	0.05
2	90	4.5	0.05
2	92	4.6	0.05
2	94	4.7	0.05
2	94	4.744904437	0.05
2	96	4.8	0.05
2	98	4.9	0.05
2	100	5	0.05
2	102	5.1	0.05
2	104	5.2	0.05
2	106	5.3	0.05
2	106	5.366100997	0.05
2	108	5.4	0.05
2	110	5.5	0.05
2	112	5.6	0.0495
2	112	5.6	0.0495
2	114	5.7	0.0499
2	116	5.8	0.05
2	118	5.9	0.05
2	118	5.949701002	0.05
2	120	6	0.05
2	122	6.1	0.05
2	124	6.2	0.05
2	126	6.3	0.05
2	128	6.4	0.05
2	128	6.46364722	0.05
2	130	6.5	0.05
2	132	6.6	0.05
2	134	6.7	0.05
2	136	6.8	0.05
2	138	6.9	0.05
2	138	6.917246134	0.05
2	140	7	0.0495
2	140	7	0.0495
2	142	7.1	0.0499
2	144	7.2	0.05
2	146	7.3	0.05
2	148	7.4	0.05
2	150	7.5	0.05
2	152	7.6	0.05
2	154	7.7	0.05
2	154	7.767330664	0.05
2	156	7.8	0.05
2	158	7.9	0.05
2	160	8	0.05
2	162	8.1	0.05
2	164	8.2	0.05
2	164	8.242790971	0.05
2	166	8.3	0.05
2	168	8.4	0.05
2	170	8.5	0.0495
2	170	8.5	0.0495
2	172	8.6	0.0499
2	174	8.7	0.05
2	176	8.8	0.05
2	178	8.9	0.05
2	178	8.98342714	0.05
2	180	9	0.05
2	182	9.1	0.05
2	184	9.2	0.05
2	186	9.3	0.05
2	188	9.4	0.05
2	190	9.5	0.05
2	192	9.6	0.05
2	194	9.7	0.05
2	194	9.716962153	0.05
2	196	9.8	0.05
2	198	9.9	0.05
2	200	10	0.0495
2	200	10	0.0495
2	202	10.1	0.0499
2	204	10.2	0.05
2	204	10.264012441	0.05
2	206	10.3	0.05
2	208	10.4	0.05
2	210	10.5	0.05
2	212	10.6	0.05
2	214	10.7	0.05
2	216	10.8	0.05
2	216	10.879485985	0.05
2	218	10.9	0.05
2	220	11	0.05
2	222	11.1	0.05
2	224	11.2	0.05
2	226	11.3	0.05
2	228	11.4	0.05
2	228	11.485515052	0.0495
2	228	11.485515052	0.0495
2	230	11.5	0.049557939792
2	232	11.6	0.049957939792
2	234	11.7	0.05
2	236	11.8	0.05
2	238	11.9	0.05
2	240	12	0.05
2	240	12.066038161	0.05
2	242	12.1	0.05
2	244	12.2	0.05
2	246	12.3	0.05
2	248	12.4	0.05
2	250	12.5	0.05
2	250	12.560673991	0.05
2	252	12.6	0.05
2	254	12.7	0.05
2	256	12.8	0.05
2	258	12.9	0.0495
2	258	12.9	0.0495
2	260	13	0.0499
2	262	13.1	0.05
2	264	13.2	0.05
2	266	13.3	0.05
2	266	13.339515436	0.05
2	268	13.4	0.05
2	270	13.5	0.05
2	272	13.6	0.05
2	274	13.7	0.05
2	276	13.8	0.05
2	278	13.9	0.05
2	280	14	0.05
2	282	14.1	0.05
2	282	14.118400777	0.05
2	284	14.2	0.05
2	286	14.3	0.05
2	288	14.4	0.0495
2	288	14.4	0.0495
2	290	14.5	0.0499
2	292	14.6	0.05
2	294	14.7	0.05
2	294	14.754871258	0.05
2	296	14.8	0.05
2	298	14.9	0.05
2	300	15	0.05
2	302	15.1	0.05
2	304	15.2	0.05
2	306	15.3	0.05
2	306	15.307518994	0.05
2	308	15.4	0.05
2	310	15.5	0.05
2	312	15.6	0.05
2	314	15.7	0.05
2	316	15.8	0.05
2	316	15.873397243	0.0495
2	316	15.873397243	0.0495
2	318	15.9	0.049606411028
2	320	16	0.05
2	322	16.1	0.05
2	324	16.2	0.05
2	326	16.3	0.05
2	328	16.4	0.05
2	328	16.424256367	0.05
2	330	16.5	0.05
2	332	16.6	0.05
2	334	16.7	0.05
2	336	16.8	0.05
2	338	16.9	0.05
2	338	16.970863375	0.05
2	340	17	0.05
2	342	17.1	0.05
2	344	17.2	0.05
2	346	17.3	0.0495
2	346	17.3	0.0495
2	348	17.4	0.0499
2	350	17.5	0.05
2	350	17.548332013	0.05
2	352	17.6	0.05
2	354	17.7	0.05
2	356	17.8	0.05
2	358	17.9	0.05
2	360	18	0.05
2	362	18.1	0.05
2	362	18.101723158	0.05
2	364	18.2	0.05
2	366	18.3	0.05
2	368	18.4	0.05
2	370	18.5	0.05
2	372	18.6	0.05
2	372	18.696653911	0.05
2	374	18.7	0.0495
2	374	18.7	0.0495
2	376	18.8	0.0499
2	378	18.9	0.05
2	380	19	0.05
2	382	19.1	0.05
2	384	19.2	0.05
2	386	19.3	0.05
2	388	19.4	0.05
2	388	19.467577363	0.05
2	390	19.5	0.05
2	392	19.6	0.05
2	394	19.7	0.05
2	396	19.8	0.05
2	398	19.9	0.05
2	400	20	0.05
2	402	20.1	0.05
2	402	20.16578665	0.05
2	404	20.2	0.0495
2	404	20.2	0.0495
2	406	20.3	0.0499
2	408	20.4	0.05
2	410	20.5	0.05
2	412	20.6	0.05
2	414	20.7	0.05
2	414	20.725640359	0.05
2	416	20.8	0.05
2	418	20.9	0.05
2	420	21	0.05
2	422	21.1	0.05
2	424	21.2	0.05
2	424	21.29608129	0.05
2	426	21.3	0.05
2	428	21.4	0.05
2	430	21.5	0.05
2	432	21.6	0.05
2	434	21.7	0.0495
2	434	21.7	0.0495
2	436	21.8	0.0499
2	436	21.81720256	0.04996881024
2	438	21.9	0.05
2	440	22	0.05
2	442	22.1	0.05
2	444	22.2	0.05
2	446	22.3	0.05
2	446	22.357948741	0.05
2	448	22.4	0.05
2	450	22.5	0.05
2	452	22.6	0.05
2	454	22.7	0.05
2	456	22.8	0.05
2	458	22.9	0.05
2	458	22.915540861	0.05
2	460	23	0.05
2	463	23.1	0.05
2	465	23.2	0.05
2	467	23.3	0.05
2	469	23.4	0.05
2	469	23.473918717	0.05
2	471	23.5	0.05
2	473	23.6	0.05
2	475	23.7	0.05
2	477	23.8	0.05
2	479	23.9	0.05
2	479	23.927977258	0.05
2	481	24	0.05
2	483	24.1	0.05
2	485	24.2	0.05
2	485	24.216183424	0.05
2	487	24.3	0.05
2	489	24.4	0.05
2	491	24.5	0.05
2	493	24.6	0.05
2	495	24.7	0.05
2	497	24.8	0.05
2	497	24.81005137	0.05
2	499	24.9	0.05
2	501	25	0.05
2	503	25.1	0.05
2	505	25.2	0.05
2	507	25.3	0.05
2	507	25.351480426	0.05
2	509	25.4	0.05
2	511	25.5	0.05
2	513	25.6	0.05
2	515	25.7	0.05
2	517	25.8	0.05
2	519	25.9	0.05
2	519	25.904998825	0.05
2	521	26	0.05
2	523	26.1	0.05
2	525	26.2	0.05
2	527	26.3	0.05
2	529	26.4	0.05
2	529	26.42854642	0.05
2	531	26.5	0.05
2	533	26.6	0.05
2	535	26.7	0.05
2	537	26.8	0.05
2	539	26.9	0.05
2	541	27	0.05
2	543	27.1	0.05
2	543	27.103313062	0.05
2	545	27.2	0.05
2	547	27.3	0.05
2	549	27.4	0.05
2	551	27.5	0.05
2	553	27.6	0.05
2	553	27.657551905	0.05
2	555	27.7	0.05
2	557	27.8	0.05
2	559	27.9	0.05
2	561	28	0.05
2	563	28.1	0.05
2	563	28.147410487	0.05
2	565	28.2	0.05
2	567	28.3	0.05
2	569	28.4	0.05
2	571	28.5	0.05
2	571	28.544924689	0.05
2	573	28.6	0.05
2	575	28.7	0.05
2	577	28.8	0.05
2	579	28.9	0.05
2	581	29	0.05
2	581	29.061732856	0.05
2	583	29.1	0.05
2	585	29.2	0.05
2	587	29.3	0.05
2	589	29.4	0.05
2	591	29.5	0.05
2	591	29.566275769	0.05
2	593	29.6	0.05
2	595	29.7	0.05
2	597	29.8	0.05
2	599	29.9	0.05
2	599	29.979164335	0.05
2	601	30	0.05
2	603	30.1	0.05
2	605	30.2	0.05
2	607	30.3	0.05
2	609	30.4	0.05
2	611	30.5	0.05
2	611	30.564390595	0.05
2	613	30.6	0.05
2	615	30.7	0.05
2	617	30.8	0.05
2	619	30.9	0.05
2	621	31	0.05
2	623	31.1	0.05
2	625	31.2	0.05
2	627	31.3	0.05
2	627	31.317121723	0.05
2	629	31.4	0.05
2	631	31.5	0.05
2	633	31.6	0.05
2	635	31.7	0.05
2	637	31.8	0.05
2	639	31.9	0.05
2	641	32	0.05
2	641	32.043714799	0.05
2	643	32.1	0.05
2	645	32.2	0.05
2	647	32.3	0.05
2	649	32.4	0.05
2	651	32.5	0.05
2	653	32.6	0.05
2	655	32.7	0.05
2	657	32.8	0.05
2	657	32.840099929	0.05
2	659	32.9	0.05
2	661	33	0.05
2	663	33.1	0.05
2	665	33.2	0.05
2	667	33.3	0.05
2	669	33.4	0.05
2	671	33.5	0.05
2	673	33.6	0.05
2	673	33.633348691	0.05
2	675	33.7	0.05
2	677	33.8	0.05
2	679	33.9	0.05
2	681	34	0.05
2	683	34.1	0.05
2	685	34.2	0.05
2	687	34.3	0.05
2	687	34.3721668	0.05
2	689	34.4	0.05
2	691	34.5	0.05
2	693	34.6	0.05
2	695	34.7	0.05
2	697	34.8	0.05
2	697	34.814869978	0.05
2	699	34.9	0.05
2	701	35	0.05
2	703	35.1	0.05
2	705	35.2	0.05
2	705	35.290273492	0.05
2	707	35.3	0.05
2	709	35.4	0.05
2	711	35.5	0.05
2	713	35.6	0.05
2	715	35.7	0.05
2	717	35.8	0.05
2	717	35.807415085	0.05
2	719	35.9	0.05
2	721	36	0.05
2	723	36.1	0.05
2	725	36.2	0.05
2	727	36.3	0.05
2	727	36.360602014	0.05
2	729	36.4	0.05
2	731	36.5	0.05
2	733	36.6	0.05
2	735	36.7	0.05
2	737	36.8	0.05
2	737	36.85652341	0.05
2	739	36.9	0.05
2	741	37	0.05
2	743	37.1	0.05
2	745	37.2	0.05
2	747	37.3	0.05
2	749	37.4	0.05
2	751	37.5	0.05
2	751	37.560954007	0.05
2	753	37.6	0.05
2	755	37.7	0.05
2	757	37.8	0.05
2	759	37.9	0.05
2	761	38	0.05
2	763	38.1	0.05
2	765	38.2	0.05
2	767	38.3	0.05
2	769	38.4	0.05
2	769	38.461495417	0.05
2	771	38.5	0.05
2	773	38.6	0.05
2	775	38.7	0.05
2	777	38.8	0.05
2	779	38.9	0.05
2	781	39	0.05
2	783	39.1	0.05
2	783	39.169606294	0.05
2	785	39.2	0.05
2	787	39.3	0.05
2	789	39.4	0.05
2	791	39.5	0.05
2	793	39.6	0.05
2	795	39.7	0.05
2	795	39.790414639	0.05
2	797	39.8	0.05
2	799	39.9	0.05
2	801	40	0.05
2	803	40.1	0.05
2	805	40.2	0.05
2	807	40.3	0.05
2	809	40.4	0.05
2	811	40.5	0.05
2	813	40.6	0.05
2	815	40.7	0.05
2	815	40.703107609	0.05
2	817	40.8	0.05
2	819	40.9	0.05
2	821	41	0.05
2	823	41.1	0.05
2	825	41.2	0.05
2	825	41.235763126	0.05
2	827	41.3	0.05
2	829	41.4	0.05
2	831	41.5	0.05
2	833	41.6	0.05
2	835	41.7	0.05
2	837	41.8	0.05
2	837	41.80185238	0.05
2	839	41.9	0.05
2	841	42	0.05
2	843	42.1	0.05
2	845	42.2	0.05
2	847	42.3	0.05
2	849	42.4	0.05
2	849	42.454314061	0.05
2	851	42.5	0.05
2	853	42.6	0.05
2	855	42.7	0.05
2	857	42.8	0.05
2	859	42.9	0.05
2	861	43	0.05
2	861	43.014761539	0.05
2	863	43.1	0.05
2	865	43.2	0.05
2	867	43.3	0.05
2	869	43.4	0.05
2	869	43.426762516	0.05
2	871	43.5	0.05
2	873	43.6	0.05
2	875	43.7	0.05
2	877	43.8	0.05
2	877	43.872259678	0.05
2	879	43.9	0.05
2	881	44	0.05
2	883	44.1	0.05
2	883	44.155859317	0.05
2	885	44.2	0.05
2	887	44.3	0.05
2	889	44.4	0.05
2	891	44.5	0.05
2	893	44.6	0.05
2	895	44.7	0.05
2	895	44.730462901	0.05
2	897	44.8	0.05
2	899	44.9	0.05
2	901	45	0.05
2	903	45.1	0.05
2	905	45.2	0.05
2	907	45.3	0.05
2	907	45.386714773	0.05
2	909	45.4	0.05
2	911	45.5	0.05
2	913	45.6	0.05
2	915	45.7	0.05
2	917	45.8	0.05
2	919	45.9	0.05
2	919	45.990270808	0.05
2	921	46	0.05
2	923	46.1	0.05
2	925	46.2	0.05
2	927	46.3	0.05
2	929	46.4	0.05
2	931	46.5	0.05
2	933	46.6	0.05
2	933	46.623329659	0.05
2	935	46.7	0.05
2	937	46.8	0.05
2	939	46.9	0.05
2	940	46.974101355068	0.05
2	942	47	0.05
2	944	47.1	0.05
2	944	47.193542134	0.05
2	946	47.2	0.05
2	948	47.3	0.05
2	950	47.4	0.05
2	952	47.5	0.05
2	954	47.6	0.05
2	956	47.7	0.0495
2	956	47.7	0.0495
2	956	47.782726531	0.0495
2	958	47.8	0.0495
2	960	47.9	0.0495
2	962	48	0.0495
2	964	48.1	0.0495
2	966	48.2	0.0495
2	968	48.3	0.0495
2	968	48.347451238	0.0495
2	970	48.4	0.0495
2	972	48.5	0.0495
2	974	48.6	0.0495
2	976	48.7	0.0495
2	978	48.8	0.0495
2	980	48.9	0.0495
2	980	48.963818521	0.0495
2	982	49	0.0495
2	984	49.1	0.049005
2	984	49.1	0.049005
2	986	49.2	0.049005
2	988	49.3	0.049005
2	990	49.4	0.049005
2	990	49.439812522	0.049005
2	992	49.5	0.049005
2	994	49.6	0.049005
2	996	49.7	0.049005
2	998	49.8	0.049005
2	1000	49.9	0.049005
2	1000	49.98389272	0.049005
2	1002	50	0.049005
2	1004	50.1	0.049005
2	1006	50.2	0.049005
2	1008	50.3	0.049005
2	1010	50.4	0.049005
2	1012	50.5	0.049005
2	1012	50.535468184	0.04851495
2	1012	50.535468184	0.04851495
2	1014	50.6	0.04851495
2	1015	50.684302222663	0.04851495
2	1017	50.784302222663	0.04851495
2	1019	50.884302222663	0.04851495
2	1021	50.984302222663	0.04851495
2	1023	51.084302222663	0.04851495
2	1023	51.095071264	0.04851495
2	1025	51.184302222663	0.04851495
2	1027	51.284302222663	0.04851495
2	1029	51.384302222663	0.04851495
2	1031	51.484302222663	0.04851495
2	1033	51.584302222663	0.04851495
2	1035	51.684302222663	0.04851495
2	1036	51.725913658	0.04851495
2	1037	51.784302222663	0.04851495
2	1039	51.884302222663	0.04851495
2	1041	51.984302222663	0.04851495
2	1043	52.084302222663	0.04851495
2	1045	52.184302222663	0.04851495
2	1047	52.284302222663	0.04851495
2	1047	52.287077248	0.04851495
2	1049	52.384302222663	0.04851495
2	1051	52.484302222663	0.04851495
2	1053	52.584302222663	0.04851495
2	1055	52.684302222663	0.04851495
2	1057	52.784302222663	0.04851495
2	1059	52.884302222663	0.04851495
2	1060	52.902399988	0.04851495
2	1061	52.984302222663	0.04851495
2	1063	53.084302222663	0.04851495
2	1065	53.184302222663	0.04851495
2	1067	53.284302222663	0.04851495
2	1069	53.384302222663	0.04851495
2	1071	53.484302222663	0.04851495
2	1071	53.486982112	0.04851495
2	1073	53.584302222663	0.04851495
2	1075	53.684302222663	0.04851495
2	1077	53.784302222663	0.04851495
2	1079	53.884302222663	0.04851495
2	1081	53.984302222663	0.04851495
2	1083	54.084302222663	0.04851495
2	1084	54.149931193	0.04851495
2	1085	54.184302222663	0.04851495
2	1087	54.284302222663	0.04851495
2	1089	54.384302222663	0.04851495
2	1091	54.484302222663	0.04851495
2	1093	54.584302222663	0.04851495
2	1095	54.684302222663	0.04851495
2	1096	54.704875417	0.04851495
2	1097	54.784302222663	0.04851495
2	1099	54.884302222663	0.04851495
2	1101	54.984302222663	0.04851495
2	1103	55.084302222663	0.04851495
2	1105	55.184302222663	0.04851495
2	1105	55.194111151	0.04851495
2	1107	55.284302222663	0.04851495
2	1109	55.384302222663	0.04851495
2	1111	55.484302222663	0.04851495
2	1113	55.584302222663	0.04851495
2	1115	55.684302222663	0.04851495
2	1116	55.717266544	0.04851495
2	1117	55.784302222663	0.04851495
2	1119	55.884302222663	0.04851495
2	1121	55.984302222663	0.04851495
2	1123	56.084302222663	0.04851495
2	1125	56.184302222663	0.04851495
2	1126	56.225151793	0.04851495
2	1127	56.284302222663	0.04851495
2	1129	56.384302222663	0.04851495
2	1131	56.484302222663	0.04851495
2	1133	56.584302222663	0.04851495
2	1135	56.684302222663	0.04851495
2	1136	56.783714134	0.04851495
2	1137	56.784302222663	0.04851495
2	1139	56.884302222663	0.04851495
2	1141	56.984302222663	0.04851495
2	1143	57.084302222663	0.04851495
2	1145	57.184302222663	0.04851495
2	1147	57.284302222663	0.04851495
2	1147	57.287621233	0.04851495
2	1149	57.384302222663	0.04851495
2	1151	57.484302222663	0.04851495
2	1153	57.584302222663	0.04851495
2	1155	57.684302222663	0.04851495
2	1157	57.784302222663	0.04851495
2	1158	57.829058365	0.04851495
2	1159	57.884302222663	0.04851495
2	1161	57.984302222663	0.04851495
2	1163	58.084302222663	0.04851495
2	1165	58.184302222663	0.04851495
2	1167	58.284302222663	0.04851495
2	1168	58.317228532	0.04851495
2	1169	58.384302222663	0.04851495
2	1171	58.484302222663	0.04851495
2	1173	58.584302222663	0.04851495
2	1174	58.60470679	0.04851495
2	1175	58.684302222663	0.04851495
2	1177	58.784302222663	0.04851495
2	1179	58.884302222663	0.04851495
2	1181	58.984302222663	0.04851495
2	1183	59.084302222663	0.04851495
2	1185	59.184302222663	0.04851495
2	1185	59.196985345	0.04851495
2	1187	59.284302222663	0.04851495
2	1189	59.384302222663	0.04851495
2	1191	59.484302222663	0.04851495
2	1193	59.584302222663	0.04851495
2	1195	59.684302222663	0.04851495
2	1197	59.784302222663	0.04851495
2	1197	59.790882787	0.04851495
2	1199	59.884302222663	0.04851495
2	1201	59.984302222663	0.04851495
2	1203	60.084302222663	0.04851495
2	1205	60.184302222663	0.04851495
2	1207	60.284302222663	0.04851495
2	1208	60.344662399	0.04851495
2	1209	60.384302222663	0.04851495
2	1211	60.484302222663	0.04851495
2	1213	60.584302222663	0.04851495
2	1215	60.684302222663	0.04851495
2	1217	60.784302222663	0.04851495
2	1219	60.884302222663	0.04851495
2	1221	60.984302222663	0.04851495
2	1221	60.995165872	0.04851495
2	1223	61.084302222663	0.04851495
2	1225	61.184302222663	0.04851495
2	1227	61.284302222663	0.04851495
2	1229	61.384302222663	0.04851495
2	1231	61.484302222663	0.04851495
2	1233	61.584302222663	0.04851495
2	1234	61.630357966	0.04851495
2	1235	61.684302222663	0.04851495
2	1237	61.784302222663	0.04851495
2	1239	61.884302222663	0.04851495
2	1241	61.984302222663	0.04851495
2	1243	62.084302222663	0.04851495
2	1245	62.184302222663	0.04851495
2	1245	62.199925906	0.04851495
2	1247	62.284302222663	0.04851495
2	1249	62.384302222663	0.04851495
2	1251	62.484302222663	0.04851495
2	1253	62.584302222663	0.04851495
2	1255	62.684302222663	0.04851495
2	1256	62.717580046	0.04851495
2	1257	62.784302222663	0.04851495
2	1259	62.884302222663	0.04851495
2	1261	62.984302222663	0.04851495
2	1263	63.084302222663	0.04851495
2	1265	63.184302222663	0.04851495
2	1267	63.284302222663	0.04851495
2	1268	63.329395363	0.04851495
2	1269	63.384302222663	0.04851495
2	1271	63.484302222663	0.04851495
2	1273	63.584302222663	0.04851495
2	1275	63.684302222663	0.04851495
2	1277	63.784302222663	0.04851495
2	1278	63.869240884	0.04851495
2	1279	63.884302222663	0.04851495
2	1281	63.984302222663	0.04851495
2	1283	64.084302222663	0.04851495
2	1285	64.184302222663	0.04851495
2	1287	64.284302222663	0.04851495
2	1287	64.288108912	0.04851495
2	1289	64.384302222663	0.04851495
2	1291	64.484302222663	0.04851495
2	1293	64.584302222663	0.04851495
2	1295	64.684302222663	0.04851495
2	1297	64.784302222663	0.04851495
2	1299	64.884302222663	0.04851495
2	1300	64.926444793	0.0480298005
2	1300	64.926444793	0.0480298005
2	1301	64.984302222663	0.0480298005
2	1303	65.084302222663	0.0480298005
2	1305	65.184302222663	0.0480298005
2	1307	65.284302222663	0.0480298005
2	1309	65.384302222663	0.0480298005
2	1310	65.443123357	0.0480298005
2	1311	65.484302222663	0.0480298005
2	1313	65.584302222663	0.0480298005
2	1315	65.684302222663	0.0480298005
2	1317	65.784302222663	0.0480298005
2	1319	65.884302222663	0.0480298005
2	1321	65.984302222663	0.0480298005
2	1322	66.06262648	0.0480298005
2	1323	66.084302222663	0.0480298005
2	1325	66.184302222663	0.0480298005
2	1327	66.284302222663	0.0480298005
2	1329	66.384302222663	0.0480298005
2	1331	66.484302222663	0.0480298005
2	1333	66.584302222663	0.0480298005
2	1334	66.63372412	0.0480298005
2	1335	66.684302222663	0.0480298005
2	1337	66.784302222663	0.0480298005
2	1339	66.884302222663	0.0480298005
2	1341	66.984302222663	0.0480298005
2	1343	67.084302222663	0.0480298005
2	1345	67.184302222663	0.0480298005
2	1347	67.284302222663	0.0480298005
2	1349	67.384302222663	0.0480298005
2	1350	67.432210129	0.0480298005
2	1351	67.484302222663	0.0480298005
2	1353	67.584302222663	0.0480298005
2	1355	67.684302222663	0.0480298005
2	1357	67.784302222663	0.0480298005
2	1359	67.884302222663	0.0480298005
2	1361	67.984302222663	0.0480298005
2	1361	67.994636266	0.0480298005
2	1363	68.084302222663	0.0480298005
2	1365	68.184302222663	0.0480298005
2	1367	68.284302222663	0.0480298005
2	1369	68.384302222663	0.0480298005
2	1371	68.484302222663	0.0480298005
2	1372	68.58189898	0.0480298005
2	1373	68.584302222663	0.0480298005
2	1375	68.684302222663	0.0480298005
2	1377	68.784302222663	0.0480298005
2	1379	68.884302222663	0.0480298005
2	1381	68.984302222663	0.0480298005
2	1383	69.084302222663	0.0480298005
2	1384	69.127442947	0.0480298005
2	1385	69.184302222663	0.0480298005
2	1387	69.284302222663	0.0480298005
2	1389	69.384302222663	0.0480298005
2	1391	69.484302222663	0.0480298005
2	1393	69.584302222663	0.0480298005
2	1395	69.684302222663	0.0480298005
2	1395	69.697577482	0.0480298005
2	1397	69.752746556824	0.0480298005
2	1398	69.784302222663	0.048156023163356
2	1400	69.870296431824	0.0485
2	1401	69.884302222663	0.048556023163356
2	1403	69.984302222663	0.048956023163356
2	1404	69.995296431824	0.049
2	1406	70.084302222663	0.049356023163356
2	1408	70.120296431824	0.0495
2	1409	70.184302222663	0.049756023163356
2	1411	70.245296431824	0.05
2	1412	70.284302222663	0.05
2	1413	70.344228154	0.05
2	1414	70.384302222663	0.05
2	1416	70.484302222663	0.05
2	1418	70.584302222663	0.0495
2	1418	70.584302222663	0.0495
2	1420	70.684302222663	0.0499
2	1422	70.784302222663	0.05
2	1424	70.884302222663	0.05
2	1425	70.951239226	0.05
2	1426	70.984302222663	0.05
2	1428	71.084302222663	0.05
2	1430	71.184302222663	0.05
2	1432	71.284302222663	0.05
2	1434	71.384302222663	0.05
2	1436	71.484302222663	0.05
2	1437	71.568359593	0.05
2	1438	71.584302222663	0.05
2	1440	71.684302222663	0.05
2	1442	71.784302222663	0.05
2	1444	71.884302222663	0.05
2	1446	71.984302222663	0.05
2	1448	72.084302222663	0.0495
2	1448	72.084302222663	0.0495
2	1448	72.093887542	0.049538341277348
2	1450	72.184302222663	0.0499
2	1452	72.284302222663	0.05
2	1454	72.384302222663	0.05
2	1456	72.484302222663	0.05
2	1458	72.584302222663	0.05
2	1462	72.684302222663	0.05
2	1463	72.751792921	0.05
2	1464	72.784302222663	0.05
2	1467	72.884302222663	0.05
2	1470	72.984302222663	0.05
2	1473	73.084302222663	0.05
2	1476	73.184302222663	0.05
2	1478	73.284302222663	0.0495
2	1478	73.284302222663	0.0495
2	1481	73.384302222663	0.0499
2	1484	73.484302222663	0.05
2	1487	73.584302222663	0.05
2	1488	73.629920524	0.05
2	1490	73.684302222663	0.05
2	1492	73.784302222663	0.05
2	1495	73.884302222663	0.05
2	1498	73.984302222663	0.05
2	1501	74.084302222663	0.05
2	1502	74.153034397	0.05
2	1504	74.184302222663	0.05
2	1506	74.284302222663	0.05
2	1509	74.384302222663	0.05
2	1512	74.484302222663	0.05
2	1515	74.584302222663	0.05
2	1518	74.684302222663	0.05
2	1520	74.784302222663	0.05
2	1523	74.884302222663	0.05
2	1526	74.984302222663	0.05
2	1529	75.079030662892	0.05
2	1529	75.090160456	0.05
2	1532	75.179030662892	0.05
2	1534	75.279030662892	0.05
2	1537	75.379030662892	0.05
2	1540	75.479030662892	0.0495
2	1540	75.479030662892	0.0495
2	1543	75.579030662892	0.0499
2	1546	75.679030662892	0.05
2	1548	75.779030662892	0.05
2	1551	75.879030662892	0.05
2	1553	75.979030662892	0.05
2	1555	76.079030662892	0.05
2	1557	76.179030662892	0.05
2	1557	76.185376615	0.05
2	1559	76.279030662892	0.05
2	1561	76.379030662892	0.05
2	1563	76.479030662892	0.05
2	1565	76.579030662892	0.05
2	1567	76.679030662892	0.05
2	1569	76.779030662892	0.05
2	1571	76.879030662892	0.05
2	1573	76.979030662892	0.05
2	1575	77.079030662892	0.05
2	1575	77.094118609	0.05
2	1577	77.179030662892	0.05
2	1579	77.279030662892	0.05
2	1581	77.379030662892	0.05
2	1583	77.479030662892	0.05
2	1585	77.579030662892	0.05
2	1587	77.679030662892	0.05
2	1587	77.69790094	0.05
2	1589	77.779030662892	0.05
2	1591	77.879030662892	0.05
2	1593	77.979030662892	0.05
2	1595	78.079030662892	0.05
2	1597	78.179030662892	0.05
2	1599	78.279030662892	0.05
2	1600	78.314306875	0.0495
2	1600	78.314306875	0.0495
2	1601	78.379030662892	0.049758895151568
2	1603	78.479030662892	0.05
2	1605	78.579030662892	0.05
2	1607	78.679030662892	0.05
2	1609	78.779030662892	0.05
2	1611	78.879030662892	0.05
2	1612	78.972107248	0.05
2	1613	78.979030662892	0.05
2	1615	79.079030662892	0.05
2	1617	79.179030662892	0.05
2	1619	79.279030662892	0.05
2	1621	79.379030662892	0.05
2	1623	79.479030662892	0.05
2	1624	79.558177639	0.05
2	1625	79.579030662892	0.05
2	1627	79.679030662892	0.05
2	1629	79.779030662892	0.05
2	1631	79.879030662892	0.05
2	1633	79.979030662892	0.05
2	1634	80.026988647	0.05
2	1635	80.079030662892	0.05
2	1637	80.179030662892	0.05
2	1639	80.279030662892	0.05
2	1641	80.379030662892	0.05
2	1643	80.479030662892	0.05
2	1644	80.566366762	0.05
2	1645	80.579030662892	0.05
2	1647	80.679030662892	0.05
2	1649	80.779030662892	0.05
2	1651	80.801076278637	0.05
2	1652	80.879030662892	0.05
2	1654	80.979030662892	0.05
2	1656	81.079030662892	0.05
2	1658	81.179030662892	0.05
2	1660	81.279030662892	0.0495
2	1660	81.279030662892	0.0495
2	1660	81.291139408	0.0495
2	1662	81.379030662892	0.0495
2	1664	81.479030662892	0.0495
2	1666	81.579030662892	0.0495
2	1668	81.679030662892	0.0495
2	1670	81.779030662892	0.0495
2	1672	81.879030662892	0.0495
2	1674	81.979030662892	0.0495
2	1676	82.079030662892	0.0495
2	1676	82.093361116	0.0495
2	1678	82.179030662892	0.0495
2	1680	82.279030662892	0.0495
2	1682	82.379030662892	0.0495
2	1684	82.479030662892	0.0495
2	1686	82.579030662892	0.0495
2	1688	82.679030662892	0.0495
2	1690	82.779030662892	0.049005
2	1690	82.779030662892	0.049005
2	1692	82.879030662892	0.049005
2	1693	82.944087034	0.049005
2	1694	82.979030662892	0.049005
2	1696	83.079030662892	0.049005
2	1698	83.179030662892	0.049005
2	1700	83.279030662892	0.049005
2	1702	83.379030662892	0.049005
2	1704	83.479030662892	0.049005
2	1706	83.579030662892	0.049005
2	1708	83.679030662892	0.049005
2	1710	83.779030662892	0.049005
2	1711	83.820280801	0.049005
2	1712	83.879030662892	0.049005
2	1714	83.979030662892	0.049005
2	1716	84.079030662892	0.049005
2	1718	84.179030662892	0.049005
2	1720	84.279030662892	0.04851495
2	1720	84.279030662892	0.04851495
2	1722	84.379030662892	0.04851495
2	1724	84.479030662892	0.04851495
2	1725	84.526327093	0.04851495
2	1726	84.579030662892	0.04851495
2	1728	84.679030662892	0.04851495
2	1730	84.779030662892	0.04851495
2	1732	84.879030662892	0.04851495
2	1734	84.979030662892	0.04851495
2	1736	85.079030662892	0.04851495
2	1738	85.179030662892	0.04851495
2	1740	85.279030662892	0.04851495
2	1741	85.321512304	0.04851495
2	1742	85.379030662892	0.04851495
2	1744	85.479030662892	0.04851495
2	1746	85.579030662892	0.04851495
2	1748	85.679030662892	0.04851495
2	1750	85.779030662892	0.0480298005
2	1750	85.779030662892	0.0480298005
2	1752	85.879030662892	0.0480298005
2	1754	85.979030662892	0.0480298005
2	1756	86.079030662892	0.0480298005
2	1758	86.179030662892	0.0480298005
2	1758	86.186041732	0.0480298005
2	1760	86.279030662892	0.0480298005
2	1762	86.379030662892	0.0480298005
2	1764	86.479030662892	0.0480298005
2	1766	86.579030662892	0.0480298005
2	1768	86.679030662892	0.0480298005
2	1770	86.779030662892	0.0480298005
2	1771	86.875665748	0.0480298005
2	1772	86.879030662892	0.0480298005
2	1774	86.979030662892	0.0480298005
2	1776	87.079030662892	0.0480298005
2	1778	87.179030662892	0.0480298005
2	1780	87.279030662892	0.047549502495
2	1780	87.279030662892	0.047549502495
2	1782	87.379030662892	0.047549502495
2	1784	87.479030662892	0.047549502495
2	1785	87.520506088	0.047549502495
2	1786	87.579030662892	0.047549502495
2	1788	87.679030662892	0.047549502495
2	1790	87.779030662892	0.047549502495
2	1792	87.879030662892	0.047549502495
2	1794	87.979030662892	0.047549502495
2	1796	88.079030662892	0.047549502495
2	1797	88.101285487	0.047549502495
2	1798	88.179030662892	0.047549502495
2	1800	88.279030662892	0.047549502495
2	1802	88.379030662892	0.047549502495
2	1804	88.479030662892	0.047549502495
2	1806	88.579030662892	0.047549502495
2	1808	88.679030662892	0.047549502495
2	1809	88.705515874	0.047549502495
2	1810	88.779030662892	0.047549502495
2	1812	88.879030662892	0.047549502495
2	1814	88.979030662892	0.047549502495
2	1816	89.079030662892	0.047549502495
2	1818	89.179030662892	0.047549502495
2	1819	89.265949375	0.047549502495
2	1820	89.279030662892	0.047549502495
2	1822	89.379030662892	0.047549502495
2	1824	89.479030662892	0.047549502495
2	1826	89.579030662892	0.047549502495
2	1828	89.679030662892	0.047549502495
2	1830	89.779030662892	0.047549502495
2	1832	89.879030662892	0.047549502495
2	1834	89.979030662892	0.047549502495
2	1834	89.99764201	0.047549502495
2	1836	90.079030662892	0.047549502495
2	1838	90.179030662892	0.04707400747005
2	1838	90.179030662892	0.04707400747005
2	1840	90.279030662892	0.04707400747005
2	1842	90.379030662892	0.04707400747005
2	1844	90.479030662892	0.04707400747005
2	1845	90.518206627	0.04707400747005
2	1846	90.579030662892	0.04707400747005
2	1848	90.679030662892	0.04707400747005
2	1850	90.779030662892	0.04707400747005
2	1852	90.879030662892	0.04707400747005
2	1854	90.979030662892	0.04707400747005
2	1856	91.079030662892	0.04707400747005
2	1857	91.118150842	0.04707400747005
2	1858	91.179030662892	0.04707400747005
2	1860	91.279030662892	0.04707400747005
2	1862	91.379030662892	0.04707400747005
2	1864	91.479030662892	0.04707400747005
2	1866	91.579030662892	0.04707400747005
2	1868	91.679030662892	0.04660326739535
2	1868	91.679030662892	0.04660326739535
2	1868	91.697535184	0.04660326739535
2	1870	91.779030662892	0.04660326739535
2	1872	91.879030662892	0.04660326739535
2	1874	91.979030662892	0.04660326739535
2	1876	92.079030662892	0.04660326739535
2	1878	92.179030662892	0.04660326739535
2	1880	92.279030662892	0.04660326739535
2	1882	92.379030662892	0.04660326739535
2	1883	92.420104237	0.04660326739535
2	1884	92.479030662892	0.04660326739535
2	1886	92.579030662892	0.04660326739535
2	1888	92.679030662892	0.04660326739535
2	1890	92.779030662892	0.04660326739535
2	1891	92.858764381	0.04660326739535
2	1892	92.879030662892	0.04660326739535
2	1894	92.979030662892	0.04660326739535
2	1896	93.079030662892	0.046137234721396
2	1896	93.079030662892	0.046137234721396
2	1898	93.179030662892	0.046137234721396
2	1900	93.279030662892	0.046137234721396
2	1902	93.379030662892	0.046137234721396
2	1903	93.424378	0.046137234721396
2	1904	93.479030662892	0.046137234721396
2	1906	93.579030662892	0.046137234721396
2	1908	93.679030662892	0.046137234721396
2	1910	93.779030662892	0.046137234721396
2	1912	93.879030662892	0.046137234721396
2	1914	93.979030662892	0.046137234721396
2	1915	94.029764092	0.046137234721396
2	1916	94.079030662892	0.046137234721396
2	1918	94.179030662892	0.046137234721396
2	1920	94.279030662892	0.046137234721396
2	1922	94.379030662892	0.046137234721396
2	1924	94.479030662892	0.046137234721396
2	1925	94.571409646	0.046137234721396
2	1926	94.579030662892	0.046137234721396
2	1928	94.679030662892	0.046137234721396
2	1930	94.779030662892	0.046137234721396
2	1932	94.879030662892	0.046137234721396
2	1934	94.979030662892	0.046137234721396
2	1936	95.079030662892	0.046137234721396
2	1938	95.179030662892	0.046137234721396
2	1939	95.21868688	0.046137234721396
2	1940	95.279030662892	0.046137234721396
2	1942	95.379030662892	0.046137234721396
2	1944	95.479030662892	0.046137234721396
2	1946	95.579030662892	0.046137234721396
2	1948	95.679030662892	0.046137234721396
2	1949	95.763019591	0.046137234721396
2	1950	95.779030662892	0.046137234721396
2	1952	95.879030662892	0.046137234721396
2	1954	95.979030662892	0.045675862374182
2	1954	95.979030662892	0.045675862374182
2	1956	96.079030662892	0.045675862374182
2	1958	96.179030662892	0.045675862374182
2	1960	96.279030662892	0.045675862374182
2	1961	96.366468655	0.045675862374182
2	1962	96.379030662892	0.045675862374182
2	1964	96.479030662892	0.045675862374182
2	1966	96.579030662892	0.045675862374182
2	1968	96.679030662892	0.045675862374182
2	1970	96.779030662892	0.045675862374182
2	1972	96.879030662892	0.045675862374182
2	1973	96.967181131	0.045675862374182
2	1974	96.979030662892	0.045675862374182
2	1976	97.079030662892	0.045675862374182
2	1978	97.179030662892	0.045675862374182
2	1980	97.279030662892	0.045675862374182
2	1982	97.379030662892	0.045675862374182
2	1983	97.435334494	0.045675862374182
2	1984	97.479030662892	0.045675862374182
2	1986	97.579030662892	0.045675862374182
2	1988	97.679030662892	0.045675862374182
2	1990	97.779030662892	0.045675862374182
2	1992	97.879030662892	0.045675862374182
2	1994	97.979030662892	0.045675862374182
2	1995	98.016913867	0.045675862374182
2	1996	98.079030662892	0.045675862374182
2	1998	98.179030662892	0.045675862374182
2	2000	98.279030662892	0.045675862374182
2	2002	98.379030662892	0.045675862374182
2	2004	98.479030662892	0.045675862374182
2	2006	98.579030662892	0.045675862374182
2	2007	98.594723146	0.045675862374182
2	2008	98.679030662892	0.045675862374182
2	2010	98.779030662892	0.045675862374182
2	2012	98.879030662892	0.04521910375044
2	2012	98.879030662892	0.04521910375044
2	2014	98.979030662892	0.04521910375044
[...]
2	2094	102.979030662892	0.04521910375044
2	2096	103.079030662892	0.04521910375044
2	2098	103.179030662892	0.04521910375044
2	2099	103.234747111	0.04521910375044
2	2100	103.279030662892	0.04521910375044
2	2102	103.379030662892	0.04521910375044
2	2104	103.479030662892	0.04521910375044
2	2106	103.579030662892	0.04521910375044
2	2108	103.679030662892	0.04521910375044
2	2110	103.779030662892	0.04521910375044
2	2111	103.797639763	0.04521910375044
2	2112	103.879030662892	0.04521910375044
2	2114	103.979030662892	0.04521910375044
2	2116	104.079030662892	0.04521910375044
2	2118	104.179030662892	0.04521910375044
2	2120	104.279030662892	0.04521910375044
2	2121	104.356947391	0.04521910375044
2	2122	104.379030662892	0.04521910375044
2	2124	104.479030662892	0.04521910375044
2	2126	104.579030662892	0.04521910375044
2	2128	104.679030662892	0.044766912712936
2	2128	104.679030662892	0.044766912712936
2	2130	104.779030662892	0.044766912712936
2	2132	104.879030662892	0.044766912712936
2	2134	104.979030662892	0.044766912712936
2	2135	105.053439757	0.044766912712936
2	2136	105.079030662892	0.044766912712936
2	2138	105.179030662892	0.044766912712936
2	2140	105.279030662892	0.044766912712936
2	2142	105.379030662892	0.044766912712936
2	2144	105.479030662892	0.044766912712936
2	2146	105.579030662892	0.044766912712936
2	2147	105.649181347	0.044766912712936
2	2148	105.679030662892	0.044766912712936
2	2150	105.779030662892	0.044766912712936
2	2152	105.879030662892	0.044766912712936
2	2154	105.979030662892	0.044766912712936
2	2156	106.079030662892	0.044766912712936
2	2157	106.151281033	0.044766912712936
2	2158	106.179030662892	0.044766912712936
2	2160	106.279030662892	0.044766912712936
2	2162	106.379030662892	0.044766912712936
2	2164	106.479030662892	0.044766912712936
2	2166	106.579030662892	0.044766912712936
2	2167	106.672464265	0.044766912712936
2	2168	106.679030662892	0.044766912712936
2	2170	106.779030662892	0.044766912712936
2	2172	106.879030662892	0.044766912712936
2	2174	106.979030662892	0.044766912712936
2	2176	107.079030662892	0.044766912712936
2	2178	107.179030662892	0.044766912712936
2	2180	107.279030662892	0.044766912712936
2	2182	107.379030662892	0.044766912712936
2	2183	107.422234489	0.044766912712936
2	2184	107.479030662892	0.044766912712936
2	2186	107.579030662892	0.044319243585806
2	2186	107.579030662892	0.044319243585806
2	2188	107.679030662892	0.044319243585806
2	2190	107.779030662892	0.044319243585806
2	2192	107.879030662892	0.044319243585806
2	2194	107.979030662892	0.044319243585806
2	2196	108.079030662892	0.044319243585806
2	2197	108.170890858	0.044319243585806
2	2198	108.179030662892	0.044319243585806
2	2200	108.279030662892	0.044319243585806
2	2202	108.379030662892	0.044319243585806
2	2204	108.479030662892	0.044319243585806
2	2206	108.579030662892	0.044319243585806
2	2208	108.679030662892	0.044319243585806
2	2210	108.779030662892	0.044319243585806
2	2212	108.879030662892	0.044319243585806
2	2214	108.979030662892	0.044319243585806
2	2215	109.060208728	0.044319243585806
2	2216	109.079030662892	0.043876051149948
2	2216	109.079030662892	0.043876051149948
2	2218	109.179030662892	0.043876051149948
2	2220	109.279030662892	0.043876051149948
2	2222	109.379030662892	0.043876051149948
2	2224	109.479030662892	0.043876051149948
2	2226	109.579030662892	0.043876051149948
2	2228	109.679030662892	0.043876051149948
2	2229	109.778403124	0.043876051149948
2	2230	109.779030662892	0.043876051149948
2	2232	109.879030662892	0.043876051149948
2	2234	109.979030662892	0.043876051149948
2	2236	110.079030662892	0.043876051149948
2	2238	110.179030662892	0.043876051149948
2	2240	110.279030662892	0.043876051149948
2	2242	110.379030662892	0.043876051149948
2	2245	110.435889936582	0.043876051149948
2	2246	110.499644671	0.043437290638449
2	2246	110.499644671	0.043437290638449
2	2247	110.535889936582	0.043437290638449
2	2249	110.635889936582	0.043437290638449
2	2251	110.735889936582	0.043437290638449
2	2253	110.835889936582	0.043437290638449
2	2255	110.935889936582	0.043437290638449
2	2257	111.035889936582	0.043437290638449
2	2259	111.135889936582	0.043437290638449
2	2260	111.189543052	0.043437290638449
2	2261	111.235889936582	0.043437290638449
2	2263	111.335889936582	0.043437290638449
2	2265	111.435889936582	0.043437290638449
2	2267	111.535889936582	0.043437290638449
2	2269	111.635889936582	0.043437290638449
2	2271	111.735889936582	0.043437290638449
2	2273	111.835889936582	0.043437290638449
2	2275	111.935889936582	0.043437290638449
2	2276	111.994301269	0.043002917732064
2	2276	111.994301269	0.043002917732064
2	2277	112.035889936582	0.043002917732064
2	2279	112.135889936582	0.043002917732064
2	2281	112.235889936582	0.043002917732064
2	2283	112.335889936582	0.043002917732064
2	2285	112.435889936582	0.043002917732064
2	2287	112.535889936582	0.043002917732064
2	2287	112.5690166	0.043002917732064
2	2289	112.635889936582	0.043002917732064
2	2291	112.735889936582	0.043002917732064
2	2293	112.835889936582	0.043002917732064
2	2295	112.935889936582	0.043002917732064
2	2297	113.035889936582	0.043002917732064
2	2299	113.135889936582	0.043002917732064
2	2299	113.153872624	0.043002917732064
2	2301	113.235889936582	0.043002917732064
2	2303	113.335889936582	0.043002917732064
2	2305	113.435889936582	0.043002917732064
2	2307	113.535889936582	0.043002917732064
2	2309	113.635889936582	0.043002917732064
2	2311	113.735889936582	0.043002917732064
2	2311	113.73994621	0.043002917732064
2	2313	113.835889936582	0.043002917732064
2	2315	113.935889936582	0.043002917732064
2	2317	114.035889936582	0.043002917732064
2	2319	114.135889936582	0.043002917732064
2	2321	114.235889936582	0.043002917732064
2	2321	114.28019569	0.043002917732064
2	2323	114.335889936582	0.043002917732064
2	2325	114.435889936582	0.043002917732064
2	2327	114.535889936582	0.043002917732064
2	2329	114.635889936582	0.043002917732064
2	2331	114.735889936582	0.043002917732064
2	2333	114.835889936582	0.043002917732064
2	2333	114.884615935	0.043002917732064
2	2335	114.935889936582	0.043002917732064
2	2337	115.035889936582	0.043002917732064
2	2339	115.135889936582	0.043002917732064
2	2341	115.235889936582	0.043002917732064
2	2343	115.335889936582	0.043002917732064
2	2344	115.412081452	0.043002917732064
2	2345	115.435889936582	0.043002917732064
2	2347	115.535889936582	0.043002917732064
2	2349	115.635889936582	0.043002917732064
2	2351	115.735889936582	0.043002917732064
2	2353	115.835889936582	0.043002917732064
2	2355	115.935889936582	0.043002917732064
2	2357	116.035889936582	0.043002917732064
2	2357	116.046333769	0.043002917732064
2	2359	116.135889936582	0.043002917732064
2	2362	116.235889936582	0.043002917732064
2	2365	116.335889936582	0.043002917732064
2	2368	116.435889936582	0.043002917732064
2	2370	116.535889936582	0.043002917732064
2	2372	116.635889936582	0.043002917732064
2	2372	116.655997021	0.043002917732064
2	2374	116.735889936582	0.043002917732064
2	2376	116.835889936582	0.043002917732064
2	2378	116.935889936582	0.043002917732064
2	2380	117.035889936582	0.043002917732064
2	2382	117.135889936582	0.043002917732064
2	2384	117.235889936582	0.043002917732064
2	2384	117.2433826	0.043002917732064
2	2386	117.335889936582	0.043002917732064
2	2388	117.435889936582	0.043002917732064
2	2390	117.535889936582	0.043002917732064
2	2392	117.635889936582	0.043002917732064
2	2394	117.735889936582	0.042572888554744
2	2394	117.735889936582	0.042572888554744
2	2396	117.835889936582	0.042572888554744
2	2397	117.890307163	0.042572888554744
2	2398	117.935889936582	0.042572888554744
2	2400	118.035889936582	0.042572888554744
2	2402	118.135889936582	0.042572888554744
2	2404	118.235889936582	0.042572888554744
2	2406	118.335889936582	0.042572888554744
2	2408	118.435889936582	0.042572888554744
2	2408	118.440766954	0.042572888554744
2	2410	118.535889936582	0.042572888554744
2	2412	118.635889936582	0.042572888554744
2	2414	118.735889936582	0.042572888554744
2	2416	118.835889936582	0.042572888554744
2	2418	118.935889936582	0.042572888554744
2	2418	118.938903661	0.042572888554744
2	2420	119.035889936582	0.042572888554744
2	2422	119.135889936582	0.042147159669196
2	2422	119.135889936582	0.042147159669196
2	2424	119.235889936582	0.042147159669196
2	2426	119.335889936582	0.042147159669196
2	2428	119.435889936582	0.042147159669196
2	2428	119.4774538	0.042147159669196
2	2430	119.535889936582	0.042147159669196
2	2432	119.635889936582	0.042147159669196
2	2434	119.735889936582	0.042147159669196
2	2436	119.835889936582	0.042147159669196
2	2438	119.935889936582	0.042147159669196
2	2440	120.035889936582	0.042147159669196
2	2441	120.090714424	0.042147159669196
2	2442	120.135889936582	0.042147159669196
2	2444	120.235889936582	0.042147159669196
2	2446	120.335889936582	0.042147159669196
2	2448	120.435889936582	0.042147159669196
2	2450	120.535889936582	0.042147159669196
2	2452	120.635889936582	0.041725688072504
2	2452	120.635889936582	0.041725688072504
2	2452	120.644674057	0.041725688072504
2	2454	120.735889936582	0.041725688072504
2	2456	120.835889936582	0.041725688072504
2	2458	120.935889936582	0.041725688072504
2	2460	121.035889936582	0.041725688072504
2	2462	121.135889936582	0.041725688072504
2	2464	121.235889936582	0.041725688072504
2	2464	121.284059497	0.041725688072504
2	2466	121.335889936582	0.041725688072504
2	2468	121.435889936582	0.041725688072504
2	2470	121.535889936582	0.041725688072504
2	2472	121.635889936582	0.041725688072504
2	2474	121.735889936582	0.041725688072504
2	2476	121.835889936582	0.041725688072504
2	2478	121.935889936582	0.041725688072504
2	2480	122.035889936582	0.041725688072504
2	2482	122.135889936582	0.041308431191779
2	2482	122.135889936582	0.041308431191779
2	2484	122.235889936582	0.041308431191779
2	2485	122.328000235	0.041308431191779
2	2486	122.335889936582	0.041308431191779
2	2488	122.435889936582	0.041308431191779
2	2490	122.535889936582	0.041308431191779
2	2492	122.635889936582	0.041308431191779
2	2494	122.735889936582	0.041308431191779
2	2496	122.835889936582	0.041308431191779
2	2498	122.935889936582	0.041308431191779
2	2500	123.035889936582	0.041308431191779
2	2502	123.135889936582	0.041308431191779
2	2503	123.206517223	0.041308431191779
2	2504	123.235889936582	0.041308431191779
2	2506	123.335889936582	0.041308431191779
2	2508	123.435889936582	0.041308431191779
2	2510	123.535889936582	0.041308431191779
2	2512	123.635889936582	0.040895346879862
2	2512	123.635889936582	0.040895346879862
2	2514	123.735889936582	0.040895346879862
2	2515	123.832115599	0.040895346879862
2	2516	123.835889936582	0.040895346879862
2	2518	123.935889936582	0.040895346879862
2	2520	124.035889936582	0.040895346879862
2	2522	124.135889936582	0.040895346879862
2	2524	124.235889936582	0.040895346879862
2	2526	124.335889936582	0.040895346879862
2	2528	124.435889936582	0.040895346879862
2	2529	124.496169907	0.040895346879862
2	2530	124.535889936582	0.040895346879862
2	2532	124.635889936582	0.040895346879862
2	2534	124.735889936582	0.040895346879862
2	2536	124.835889936582	0.040895346879862
2	2538	124.935889936582	0.040895346879862
2	2540	125.035889936582	0.040895346879862
2	2541	125.111194285	0.040895346879862
2	2542	125.135889936582	0.040895346879862
2	2544	125.235889936582	0.040895346879862
2	2546	125.335889936582	0.040895346879862
2	2548	125.435889936582	0.040895346879862
2	2551	125.535889936582	0.040895346879862
2	2553	125.635889936582	0.040895346879862
2	2554	125.713237459	0.040895346879862
2	2555	125.735889936582	0.040895346879862
2	2557	125.835889936582	0.040895346879862
2	2559	125.935889936582	0.040895346879862
2	2561	126.035889936582	0.040895346879862
2	2563	126.135889936582	0.040895346879862
2	2565	126.235889936582	0.040895346879862
2	2567	126.335889936582	0.040895346879862
2	2569	126.435889936582	0.040895346879862
2	2569	126.468667831	0.040895346879862
2	2571	126.535889936582	0.040895346879862
2	2573	126.635889936582	0.040895346879862
2	2575	126.735889936582	0.040895346879862
2	2577	126.835889936582	0.040895346879862
2	2579	126.935889936582	0.040895346879862
2	2581	127.035889936582	0.040895346879862
2	2583	127.135889936582	0.040895346879862
2	2585	127.235889936582	0.040895346879862
2	2585	127.257319666	0.040895346879862
2	2587	127.335889936582	0.040895346879862
2	2589	127.435889936582	0.040895346879862
2	2591	127.535889936582	0.040895346879862
2	2593	127.635889936582	0.040895346879862
2	2595	127.735889936582	0.040895346879862
2	2597	127.835889936582	0.040895346879862
2	2599	127.935889936582	0.040895346879862
2	2599	127.978269397	0.040895346879862
2	2601	128.035889936582	0.040895346879862
2	2603	128.135889936582	0.040895346879862
2	2605	128.235889936582	0.040895346879862
2	2607	128.335889936582	0.040895346879862
2	2609	128.435889936582	0.040895346879862
2	2611	128.535889936582	0.040895346879862
2	2613	128.635889936582	0.040895346879862
2	2615	128.735889936582	0.040895346879862
2	2617	128.835889936582	0.040895346879862
2	2617	128.897236966	0.040895346879862
2	2619	128.935889936582	0.040895346879862
2	2621	129.035889936582	0.040895346879862
2	2623	129.135889936582	0.040895346879862
2	2625	129.235889936582	0.040895346879862
2	2627	129.335889936582	0.040895346879862
2	2629	129.435889936582	0.040895346879862
2	2631	129.535889936582	0.040895346879862
2	2633	129.635889936582	0.040895346879862
2	2635	129.735889936582	0.040895346879862
2	2635	129.756580696	0.040895346879862
2	2637	129.835889936582	0.040895346879862
2	2639	129.935889936582	0.040895346879862
2	2641	130.035889936582	0.040895346879862
2	2643	130.135889936582	0.040895346879862
2	2645	130.235889936582	0.040895346879862
2	2647	130.335889936582	0.040895346879862
2	2649	130.435889936582	0.040895346879862
2	2651	130.535889936582	0.040895346879862
2	2651	130.598767846	0.040895346879862
2	2653	130.635889936582	0.040895346879862
2	2655	130.735889936582	0.040895346879862
2	2657	130.835889936582	0.040895346879862
2	2659	130.935889936582	0.040895346879862
2	2661	131.035889936582	0.040895346879862
2	2663	131.135889936582	0.040895346879862
2	2665	131.235889936582	0.040895346879862
2	2667	131.335889936582	0.040895346879862
2	2667	131.384249659	0.040895346879862
2	2669	131.435889936582	0.040895346879862
2	2671	131.535889936582	0.040895346879862
2	2673	131.635889936582	0.040895346879862
2	2675	131.735889936582	0.040895346879862
2	2677	131.835889936582	0.040895346879862
2	2677	131.908440718	0.040895346879862
2	2679	131.935889936582	0.040895346879862
2	2681	132.035889936582	0.040895346879862
2	2683	132.135889936582	0.040895346879862
2	2685	132.235889936582	0.040895346879862
2	2687	132.335889936582	0.040895346879862
2	2689	132.435889936582	0.040895346879862
2	2691	132.535889936582	0.040895346879862
2	2692	132.612985567	0.040895346879862
2	2693	132.635889936582	0.040895346879862
2	2695	132.735889936582	0.040895346879862
2	2697	132.835889936582	0.040895346879862
2	2699	132.935889936582	0.040895346879862
2	2701	133.035889936582	0.040895346879862
2	2703	133.135889936582	0.040895346879862
2	2703	133.206621073	0.040895346879862
2	2705	133.235889936582	0.040895346879862
2	2707	133.335889936582	0.040895346879862
2	2709	133.435889936582	0.040895346879862
2	2711	133.535889936582	0.040895346879862
2	2713	133.635889936582	0.040895346879862
2	2715	133.735889936582	0.040895346879862
2	2716	133.834827532	0.040895346879862
2	2717	133.835889936582	0.040895346879862
2	2719	133.935889936582	0.040895346879862
2	2721	134.035889936582	0.040895346879862
2	2723	134.135889936582	0.040895346879862
2	2725	134.235889936582	0.040895346879862
2	2727	134.335889936582	0.040895346879862
2	2729	134.435889936582	0.040895346879862
2	2729	134.478810076	0.040895346879862
2	2731	134.535889936582	0.040895346879862
2	2733	134.635889936582	0.040895346879862
2	2735	134.735889936582	0.040895346879862
2	2737	134.835889936582	0.040895346879862
2	2739	134.935889936582	0.040895346879862
2	2741	135.035889936582	0.040895346879862
2	2741	135.045734254	0.040895346879862
2	2743	135.135889936582	0.040895346879862
2	2745	135.235889936582	0.040895346879862
2	2747	135.335889936582	0.040895346879862
2	2749	135.435889936582	0.040895346879862
2	2751	135.535889936582	0.040895346879862
2	2753	135.635889936582	0.040895346879862
2	2753	135.701887	0.040895346879862
2	2755	135.735889936582	0.040895346879862
2	2757	135.835889936582	0.040895346879862
2	2759	135.935889936582	0.040895346879862
2	2761	136.035889936582	0.040895346879862
2	2763	136.135889936582	0.040895346879862
2	2765	136.235889936582	0.040895346879862
2	2765	136.238478505	0.040895346879862
2	2767	136.335889936582	0.040895346879862
2	2769	136.435889936582	0.040895346879862
2	2771	136.535889936582	0.040895346879862
2	2773	136.635889936582	0.040895346879862
2	2775	136.735889936582	0.040895346879862
2	2777	136.835889936582	0.040895346879862
2	2777	136.892547691	0.040895346879862
2	2779	136.935889936582	0.040895346879862
2	2781	137.035889936582	0.040895346879862
2	2783	137.135889936582	0.040895346879862
2	2785	137.235889936582	0.040895346879862
2	2787	137.335889936582	0.040895346879862
2	2789	137.435889936582	0.040895346879862
2	2790	137.520059953	0.040895346879862
2	2791	137.535889936582	0.040895346879862
2	2793	137.635889936582	0.040895346879862
2	2795	137.735889936582	0.040895346879862
2	2797	137.835889936582	0.040895346879862
2	2799	137.935889936582	0.040895346879862
2	2801	138.035889936582	0.040895346879862
2	2802	138.130186234	0.040895346879862
2	2803	138.135889936582	0.040895346879862
2	2805	138.235889936582	0.040895346879862
2	2807	138.335889936582	0.040895346879862
2	2809	138.435889936582	0.040895346879862
2	2811	138.535889936582	0.040895346879862
2	2813	138.635889936582	0.040895346879862
2	2815	138.735889936582	0.040895346879862
2	2817	138.835889936582	0.040895346879862
2	2818	138.925564117	0.040895346879862
2	2819	138.935889936582	0.040895346879862
2	2821	139.035889936582	0.040895346879862
2	2823	139.135889936582	0.040895346879862
2	2825	139.235889936582	0.040895346879862
2	2827	139.335889936582	0.040895346879862
2	2829	139.435889936582	0.040895346879862
2	2829	139.46941414	0.040895346879862
2	2831	139.535889936582	0.040895346879862
2	2833	139.635889936582	0.040895346879862
2	2835	139.735889936582	0.040895346879862
2	2837	139.835889936582	0.040895346879862
2	2839	139.935889936582	0.040895346879862
2	2841	140.035889936582	0.040895346879862
2	2841	140.069677204	0.040895346879862
2	2843	140.135889936582	0.040895346879862
2	2845	140.235889936582	0.040895346879862
2	2847	140.335889936582	0.040895346879862
2	2849	140.435889936582	0.040895346879862
2	2851	140.535889936582	0.040895346879862
2	2851	140.539746877	0.040895346879862
2	2853	140.635889936582	0.040895346879862
2	2855	140.735889936582	0.040895346879862
2	2857	140.835889936582	0.040895346879862
2	2859	140.935889936582	0.040895346879862
2	2861	141.035889936582	0.040895346879862
2	2861	141.097020742	0.040895346879862
2	2863	141.135889936582	0.040895346879862
2	2865	141.235889936582	0.040895346879862
2	2867	141.335889936582	0.040895346879862
2	2869	141.435889936582	0.040895346879862
2	2871	141.535889936582	0.040895346879862
2	2873	141.635889936582	0.040895346879862
2	2875	141.735889936582	0.040895346879862
2	2876	141.815005912	0.040895346879862
2	2877	141.835889936582	0.040895346879862
2	2879	141.935889936582	0.040895346879862
2	2881	142.035889936582	0.040895346879862
2	2883	142.135889936582	0.040895346879862
2	2885	142.235889936582	0.040895346879862
2	2887	142.335889936582	0.040895346879862
2	2887	142.371113956	0.040895346879862
2	2889	142.435889936582	0.040895346879862
2	2891	142.535889936582	0.040895346879862
2	2893	142.635889936582	0.040895346879862
2	2895	142.735889936582	0.040895346879862
2	2897	142.835889936582	0.040895346879862
2	2899	142.935889936582	0.040895346879862
2	2899	142.979505292	0.040895346879862
2	2899	143.010148922112	0.040895346879862
3	0	0	0.004
3	940	46.974101355068	0
3	1397	69.752746556824	0.004
3	1651	80.801076278637	0
4	0	0	0.004
4	461	23.08057828677	0
4	1460	72.627836814492	0.004
4	2243	110.387957281695	0
4	2360	116.138987064781	0.004
5	0	0	0.004
5	940	46.974101355068	0
5	1397	69.752746556824	0.004
5	1651	80.801076278637	0

