version 2
run Mysterio_ex2-0-20210909-12:23:12-7363
attr configname Mysterio_ex2
attr datetime 20210909-12:23:12
attr experiment Mysterio_ex2
attr inifile omnetpp.ini
attr iterationvars ""
attr iterationvarsf ""
attr measurement ""
attr network MysterioCommunication2
attr processid 7363
attr repetition 0
attr replication #0
attr resultdir results
attr runnumber 0
attr seedset 0
param *.host[*].mobility.numeroDrones 2
param *.numHosts 2
param *.host[*].osgModel "\"3d/drone.ive.100.scale.0,0,90.rot\""
param *.basestation.osgModel "\"3d/car.ive.50.scale.0,0,90.rot\""
param *.canvasVisualizer.energyStorageVisualizer.displayEnergyStorages true
param *.host[*].hasStatus true
param *.host[*].energyStorage.typename "\"SimpleEpEnergyStorage\""
param *.host[*].wlan[*].radio.energyConsumer.typename "\"StateBasedEpEnergyConsumer\""
param *.host[*].energyManagement.typename "\"SimpleEpEnergyManagement\""
param *.host[*].energyStorage.nominalCapacity 0.05J
param *.host[*].energyManagement.nodeShutdownCapacity "0.1 * energyStorage.nominalCapacity"
param *.host[*].energyManagement.nodeStartCapacity "0.5 * energyStorage.nominalCapacity"
param *.host[*].energyStorage.initialCapacity 0.05J
param *.host[*].energyGenerator.typename "\"AlternatingEpEnergyGenerator\""
param *.host[*].energyGenerator.powerGeneration 4mW
param *.host[*].energyGenerator.sleepInterval exponential(25s)
param *.host[*].energyGenerator.generationInterval exponential(25s)
param *.host[*].mobility.typename "\"UAVMobility\""
param *.host[*].mobility.changeInterval 1s
param *.host[*].mobility.initialMovementHeading "uniform(0deg, 360deg)"
param *.host[*].mobility.initialMovementElevation "uniform(-90deg, 90deg)"
param *.host[*].mobility.angleDelta uniform(-10deg,10deg)
param *.host[*].mobility.rotationAxisAngle uniform(-10deg,10deg)
param *.host[*].mobility.speed uniform(10mps,20mps)
param *.host[*].mobility.faceForward false
param *.host[*].mobility.initialX 220m
param *.host[*].mobility.initialY 220m
param *.host[*].mobility.initialZ 80m
param *.visualizer.osgVisualizer.typename "\"IntegratedOsgVisualizer\""
param *.visualizer.osgVisualizer.sceneVisualizer.clearColor "\"skyblue\""
param *.visualizer.osgVisualizer.sceneVisualizer.sceneImage "\"showcases/desert\""
param *.visualizer.osgVisualizer.sceneVisualizer.sceneImageSize 5000m
param *.visualizer.osgVisualizer.sceneVisualizer.axisLength 1000m
param *.visualizer.osgVisualizer.sceneVisualizer.sceneMinX -2000m
param *.visualizer.osgVisualizer.sceneVisualizer.sceneMinY -2000m
param *.visualizer.osgVisualizer.sceneVisualizer.sceneMinZ 0m
param *.visualizer.osgVisualizer.sceneVisualizer.sceneMaxX 3000m
param *.visualizer.osgVisualizer.sceneVisualizer.sceneMaxY 3000m
param *.visualizer.osgVisualizer.sceneVisualizer.sceneMaxZ 1000m
param *.visualizer.osgVisualizer.networkNodeVisualizer.displayModuleName false
param *.visualizer.*.mobilityVisualizer.displayMobility true
param *.visualizer.*.mobilityVisualizer.displayPositions true
param *.visualizer.*.mobilityVisualizer.displayOrientations false
param *.visualizer.*.mobilityVisualizer.displayVelocities true
param *.visualizer.*.mobilityVisualizer.displayMovementTrails true
param *.visualizer.*.mobilityVisualizer.animationSpeed 3
param **.constraintAreaMinX 0m
param **.constraintAreaMinY 0m
param **.constraintAreaMinZ 0m
param **.constraintAreaMaxX 1000m
param **.constraintAreaMaxY 1000m
param **.constraintAreaMaxZ 1000m
param **.networkConfiguratorModule "\"\""

vector 0 MysterioCommunication2.host[0].energyStorage residualEnergyCapacity:vector ETV
attr interpolationmode linear
attr source residualEnergyCapacityChanged
attr title "Residual energy capacity, vector"
vector 1 MysterioCommunication2.host[0].energyGenerator powerGeneration:vector ETV
attr interpolationmode sample-hold
attr source powerGenerationChanged
attr title "Power generation, vector"
vector 2 MysterioCommunication2.host[1].energyStorage residualEnergyCapacity:vector ETV
attr interpolationmode linear
attr source residualEnergyCapacityChanged
attr title "Residual energy capacity, vector"
vector 3 MysterioCommunication2.host[1].energyGenerator powerGeneration:vector ETV
attr interpolationmode sample-hold
attr source powerGenerationChanged
attr title "Power generation, vector"
vector 4 MysterioCommunication2.host[0].energyStorage powerGeneration:vector ETV
attr interpolationmode sample-hold
attr source powerGenerationChanged
attr title "Power generation, vector"
vector 5 MysterioCommunication2.host[1].energyStorage powerGeneration:vector ETV
attr interpolationmode sample-hold
attr source powerGenerationChanged
attr title "Power generation, vector"
0	0	0	0.05
0	0	0.1	0.05
0	2	0.149704603	0.05
0	3	0.2	0.05
0	5	0.3	0.05
0	7	0.4	0.05
0	9	0.5	0.05
0	10	0.566516944	0.05
0	11	0.6	0.05
0	13	0.7	0.05
0	15	0.8	0.05
0	17	0.9	0.05
0	19	1	0.05
0	21	1.1	0.05
0	22	1.162617742	0.05
0	23	1.2	0.05
0	25	1.3	0.05
0	26	1.369501135	0.05
0	27	1.4	0.05
0	29	1.5	0.05
0	31	1.6	0.05
0	32	1.635164215	0.05
0	33	1.7	0.05
0	35	1.8	0.05
0	37	1.9	0.05
0	39	2	0.05
0	41	2.1	0.05
0	42	2.114608129	0.05
0	43	2.2	0.05
0	45	2.3	0.05
0	47	2.4	0.05
0	49	2.5	0.05
0	50	2.519763898	0.05
0	51	2.6	0.05
0	53	2.7	0.05
0	55	2.8	0.05
0	57	2.9	0.05
0	58	2.991383122	0.05
0	59	3	0.05
0	61	3.1	0.05
0	63	3.2	0.05
0	64	3.24948958	0.05
0	65	3.3	0.05
0	67	3.4	0.05
0	68	3.482566648	0.05
0	69	3.5	0.05
0	71	3.6	0.05
0	72	3.688361956	0.05
0	73	3.7	0.05
0	75	3.8	0.05
0	77	3.9	0.05
0	78	3.958478572	0.05
0	79	4	0.05
0	81	4.1	0.05
0	83	4.2	0.05
0	84	4.243283233	0.05
0	85	4.3	0.05
0	87	4.4	0.05
0	89	4.5	0.05
0	91	4.6	0.05
0	93	4.7	0.05
0	94	4.789454017	0.05
0	95	4.8	0.05
0	97	4.9	0.05
0	99	5	0.05
0	101	5.1	0.05
0	103	5.2	0.05
0	104	5.244129889	0.05
0	105	5.3	0.05
0	107	5.4	0.05
0	109	5.5	0.05
0	110	5.507683741	0.05
0	111	5.6	0.05
0	113	5.7	0.05
0	115	5.8	0.05
0	117	5.9	0.05
0	119	6	0.05
0	120	6.04099309	0.05
0	121	6.1	0.05
0	123	6.2	0.05
0	125	6.3	0.05
0	127	6.4	0.05
0	129	6.5	0.05
0	130	6.502072267	0.05
0	131	6.6	0.05
0	133	6.7	0.05
0	135	6.8	0.05
0	137	6.9	0.05
0	138	6.991758406	0.05
0	139	7	0.05
0	141	7.1	0.05
0	143	7.2	0.05
0	144	7.266592144	0.05
0	145	7.3	0.05
0	147	7.4	0.05
0	149	7.5	0.05
0	150	7.550657308	0.05
0	151	7.6	0.05
0	153	7.7	0.05
0	155	7.8	0.05
0	157	7.9	0.05
0	158	7.959902104	0.05
0	159	8	0.05
0	161	8.1	0.05
0	163	8.2	0.05
0	165	8.3	0.05
0	167	8.4	0.05
0	168	8.405005183	0.05
0	169	8.5	0.05
0	171	8.6	0.05
0	173	8.7	0.05
0	175	8.8	0.05
0	177	8.9	0.05
0	179	9	0.05
0	180	9.025372855	0.05
0	181	9.1	0.05
0	183	9.2	0.05
0	185	9.3	0.05
0	187	9.4	0.05
0	189	9.5	0.05
0	191	9.6	0.05
0	192	9.612562159	0.05
0	193	9.7	0.05
0	195	9.8	0.05
0	197	9.9	0.05
0	199	10	0.05
0	201	10.1	0.05
0	202	10.136597608	0.05
0	203	10.2	0.05
0	205	10.3	0.05
0	207	10.4	0.05
0	209	10.5	0.05
0	211	10.6	0.05
0	212	10.609922392	0.05
0	213	10.7	0.05
0	215	10.8	0.05
0	216	10.898152699	0.05
0	217	10.9	0.05
0	219	11	0.05
0	221	11.1	0.05
0	223	11.2	0.05
0	225	11.3	0.05
0	226	11.355068299	0.05
0	227	11.4	0.05
0	229	11.5	0.05
0	231	11.6	0.05
0	233	11.7	0.05
0	235	11.8	0.05
0	237	11.9	0.05
0	238	11.904293053	0.05
0	239	12	0.05
0	241	12.1	0.05
0	243	12.2	0.05
0	245	12.3	0.05
0	247	12.4	0.05
0	249	12.5	0.05
0	250	12.533256946	0.05
0	251	12.6	0.05
0	253	12.7	0.05
0	255	12.8	0.05
0	257	12.9	0.05
0	259	13	0.05
0	260	13.032595696	0.05
0	261	13.1	0.05
0	263	13.2	0.05
0	265	13.3	0.05
0	267	13.4	0.05
0	269	13.5	0.05
0	271	13.6	0.05
0	273	13.7	0.05
0	274	13.710906871	0.05
0	275	13.8	0.05
0	277	13.9	0.05
0	279	14	0.05
0	280	14.008011634	0.05
0	281	14.1	0.05
0	283	14.2	0.05
0	285	14.3	0.05
0	287	14.4	0.05
0	289	14.5	0.05
0	290	14.574633466	0.05
0	291	14.6	0.05
0	293	14.7	0.05
0	295	14.8	0.05
0	297	14.9	0.05
0	299	15	0.05
0	300	15.058923235	0.05
0	301	15.1	0.05
0	303	15.2	0.05
0	305	15.3	0.05
0	307	15.4	0.05
0	309	15.5	0.05
0	310	15.52097266	0.05
0	311	15.6	0.05
0	313	15.7	0.05
0	315	15.8	0.05
0	317	15.9	0.05
0	319	16	0.05
0	320	16.009985593	0.05
0	321	16.1	0.05
0	323	16.2	0.05
0	325	16.3	0.05
0	327	16.4	0.05
0	328	16.486426321	0.05
0	329	16.5	0.05
0	331	16.6	0.05
0	333	16.7	0.05
0	335	16.8	0.05
0	337	16.9	0.05
0	339	17	0.05
0	341	17.1	0.05
0	342	17.11277947	0.05
0	343	17.2	0.05
0	345	17.3	0.05
0	347	17.4	0.05
0	349	17.5	0.05
0	351	17.6	0.05
0	352	17.625838711	0.05
0	353	17.7	0.05
0	355	17.8	0.05
0	356	17.857280827	0.05
0	357	17.9	0.05
0	359	18	0.05
0	361	18.1	0.05
0	362	18.118808053	0.05
0	363	18.2	0.05
0	365	18.3	0.05
0	366	18.354804592	0.05
0	367	18.4	0.05
0	369	18.5	0.05
0	371	18.6	0.05
0	373	18.7	0.05
0	374	18.737516872	0.05
0	375	18.8	0.05
0	377	18.9	0.05
0	379	19	0.05
0	380	19.024565938	0.05
0	381	19.1	0.05
0	383	19.2	0.05
0	385	19.3	0.05
0	387	19.4	0.05
0	388	19.483430794	0.05
0	389	19.5	0.05
0	391	19.6	0.05
0	393	19.7	0.05
0	395	19.8	0.05
0	396	19.891747504	0.05
0	397	19.9	0.05
0	399	20	0.05
0	401	20.1	0.05
0	403	20.2	0.05
0	405	20.3	0.05
0	406	20.319816049	0.05
0	407	20.4	0.05
0	409	20.5	0.05
0	411	20.6	0.05
0	413	20.7	0.05
0	414	20.793696298	0.05
0	415	20.8	0.05
0	417	20.9	0.05
0	419	21	0.05
0	421	21.1	0.05
0	423	21.2	0.05
0	424	21.270909613	0.05
0	425	21.3	0.05
0	427	21.4	0.05
0	429	21.5	0.05
0	431	21.6	0.05
0	432	21.691614778	0.05
0	433	21.7	0.05
0	435	21.8	0.05
0	437	21.9	0.05
0	439	22	0.05
0	441	22.1	0.05
0	442	22.127291557	0.05
0	443	22.2	0.05
0	445	22.3	0.05
0	447	22.4	0.05
0	449	22.5	0.05
0	450	22.563798385	0.05
0	451	22.6	0.05
0	453	22.7	0.05
0	455	22.8	0.05
0	456	22.84777357	0.05
0	457	22.9	0.05
0	459	23	0.05
0	461	23.08057828677	0.05
0	462	23.1	0.05
0	464	23.2	0.05
0	466	23.3	0.0495
0	466	23.3	0.0495
0	467	23.333217241	0.0495
0	468	23.367909541983	0.0495
0	469	23.4	0.049628361832068
0	471	23.492909541983	0.05
0	472	23.5	0.05
0	474	23.6	0.05
0	476	23.7	0.05
0	477	23.712236497	0.05
0	478	23.8	0.05
0	480	23.9	0.05
0	481	23.953167592	0.05
0	482	24	0.05
0	484	24.1	0.05
0	486	24.2	0.05
0	487	24.251432701	0.05
0	488	24.3	0.05
0	490	24.4	0.05
0	492	24.5	0.0495
0	492	24.5	0.0495
0	493	24.551753017	0.049707012068
0	494	24.6	0.0499
0	496	24.7	0.05
0	498	24.8	0.05
0	500	24.9	0.05
0	502	25	0.05
0	503	25.012381528	0.05
0	504	25.1	0.05
0	506	25.2	0.05
0	508	25.3	0.05
0	510	25.4	0.05
0	512	25.5	0.05
0	513	25.552567804	0.05
0	514	25.6	0.05
0	516	25.7	0.05
0	518	25.8	0.05
0	519	25.807645822	0.0495
0	519	25.807645822	0.0495
0	520	25.9	0.049869416712
0	522	26	0.05
0	524	26.1	0.05
0	526	26.2	0.05
0	528	26.3	0.05
0	529	26.316259165	0.05
0	530	26.4	0.05
0	532	26.5	0.05
0	534	26.6	0.05
0	536	26.7	0.05
0	538	26.8	0.05
0	539	26.85466834	0.05
0	540	26.9	0.05
0	542	27	0.05
0	544	27.1	0.05
0	546	27.2	0.05
0	547	27.25764532	0.0495
0	547	27.25764532	0.0495
0	548	27.3	0.04966941872
0	550	27.4	0.05
0	552	27.5	0.05
0	554	27.6	0.05
0	555	27.658843924	0.05
0	556	27.7	0.05
0	558	27.8	0.05
0	560	27.9	0.05
0	562	28	0.05
0	564	28.1	0.05
0	565	28.184621599	0.05
0	566	28.2	0.05
0	568	28.3	0.05
0	570	28.4	0.05
0	572	28.5	0.05
0	574	28.6	0.05
0	575	28.612995397	0.0495
0	575	28.612995397	0.0495
0	576	28.7	0.049848018412
0	578	28.8	0.05
0	580	28.9	0.05
0	582	29	0.05
0	583	29.075166637	0.05
0	584	29.1	0.05
0	586	29.2	0.05
0	588	29.3	0.05
0	590	29.4	0.05
0	592	29.5	0.05
0	594	29.6	0.05
0	595	29.620838299	0.05
0	596	29.7	0.05
0	598	29.8	0.05
0	600	29.9	0.05
0	602	30	0.05
0	604	30.1	0.0495
0	604	30.1	0.0495
0	606	30.2	0.0499
0	607	30.26455804	0.05
0	608	30.3	0.05
0	610	30.4	0.05
0	612	30.5	0.05
0	614	30.6	0.05
0	616	30.7	0.05
0	618	30.8	0.05
0	619	30.85039969	0.05
0	620	30.9	0.05
0	622	31	0.05
0	624	31.1	0.05
0	626	31.2	0.05
0	628	31.3	0.05
0	629	31.326347068	0.05
0	630	31.4	0.05
0	632	31.5	0.0495
0	632	31.5	0.0495
0	634	31.6	0.0499
0	636	31.7	0.05
0	638	31.8	0.05
0	639	31.833543961	0.05
0	640	31.9	0.05
0	642	32	0.05
0	644	32.1	0.05
0	646	32.2	0.05
0	647	32.234199139	0.05
0	648	32.3	0.05
0	650	32.4	0.05
0	652	32.5	0.05
0	654	32.6	0.05
0	655	32.691371437	0.05
0	656	32.7	0.05
0	658	32.8	0.05
0	660	32.9	0.0495
0	660	32.9	0.0495
0	662	33	0.0499
0	663	33.067533772	0.05
0	664	33.1	0.05
0	666	33.2	0.05
0	668	33.3	0.05
0	669	33.341005477	0.05
0	670	33.4	0.05
0	672	33.5	0.05
0	674	33.6	0.05
0	676	33.7	0.05
0	678	33.8	0.05
0	679	33.824483947	0.05
0	680	33.9	0.05
0	682	34	0.05
0	684	34.1	0.05
0	686	34.2	0.05
0	687	34.276535623	0.0495
0	687	34.276535623	0.0495
0	688	34.3	0.049593857508
0	690	34.4	0.049993857508
0	692	34.5	0.05
0	694	34.6	0.05
0	696	34.7	0.05
0	697	34.754644453	0.05
0	698	34.8	0.05
0	700	34.9	0.05
0	702	35	0.05
0	704	35.1	0.05
0	706	35.2	0.05
0	707	35.257387771	0.05
0	708	35.3	0.05
0	710	35.4	0.05
0	712	35.5	0.05
0	714	35.6	0.05
0	716	35.7	0.0495
0	716	35.7	0.0495
0	718	35.8	0.0499
0	719	35.843851885	0.05
0	720	35.9	0.05
0	722	36	0.05
0	724	36.1	0.05
0	726	36.2	0.05
0	728	36.3	0.05
0	729	36.325852072	0.05
0	730	36.4	0.05
0	732	36.5	0.05
0	734	36.6	0.05
0	736	36.7	0.05
0	738	36.8	0.05
0	739	36.848418928	0.05
0	740	36.9	0.05
0	742	37	0.05
0	744	37.1	0.0495
0	744	37.1	0.0495
0	746	37.2	0.0499
0	748	37.3	0.05
0	749	37.376526979	0.05
0	750	37.4	0.05
0	752	37.5	0.05
0	754	37.6	0.05
0	756	37.7	0.05
0	758	37.8	0.05
0	759	37.882893844	0.05
0	760	37.9	0.05
0	762	38	0.05
0	764	38.1	0.05
0	766	38.2	0.05
0	768	38.3	0.05
0	769	38.301846751	0.05
0	770	38.4	0.05
0	772	38.5	0.0495
0	772	38.5	0.0495
0	774	38.6	0.0499
0	776	38.7	0.05
0	778	38.8	0.05
0	779	38.805206872	0.05
0	780	38.9	0.05
0	782	39	0.05
0	784	39.1	0.05
0	786	39.2	0.05
0	787	39.25109935	0.05
0	788	39.3	0.05
0	790	39.4	0.05
0	792	39.5	0.05
0	794	39.6	0.05
0	796	39.7	0.05
0	797	39.720173725	0.05
0	798	39.8	0.05
0	800	39.9	0.0495
0	800	39.9	0.0495
0	802	40	0.0499
0	804	40.1	0.05
0	805	40.13155861	0.05
0	806	40.2	0.05
0	808	40.3	0.05
0	810	40.4	0.05
0	812	40.5	0.05
0	814	40.6	0.05
0	815	40.663802788	0.05
0	816	40.7	0.05
0	818	40.8	0.05
0	820	40.9	0.05
0	822	41	0.05
0	824	41.1	0.05
0	826	41.2	0.05
0	828	41.3	0.05
0	829	41.301411106	0.0495
0	829	41.301411106	0.0495
0	830	41.4	0.049894355576
0	832	41.5	0.05
0	834	41.6	0.05
0	836	41.7	0.05
0	838	41.8	0.05
0	839	41.851541653	0.05
0	840	41.9	0.05
0	842	42	0.05
0	844	42.1	0.05
0	846	42.2	0.05
0	848	42.3	0.05
0	849	42.386627533	0.05
0	850	42.4	0.05
0	852	42.5	0.05
0	854	42.6	0.05
0	856	42.7	0.05
0	858	42.8	0.0495
0	858	42.8	0.0495
0	860	42.9	0.0499
0	862	43	0.05
0	863	43.021124203	0.05
0	864	43.1	0.05
0	866	43.2	0.05
0	868	43.3	0.05
0	870	43.4	0.05
0	872	43.5	0.05
0	874	43.6	0.05
0	875	43.677449962	0.05
0	876	43.7	0.05
0	878	43.8	0.05
0	880	43.9	0.05
0	882	44	0.05
0	884	44.1	0.05
0	886	44.2	0.05
0	887	44.276431261	0.0495
0	887	44.276431261	0.0495
0	888	44.3	0.049594274956
0	890	44.4	0.049994274956
0	892	44.5	0.05
0	894	44.6	0.05
0	896	44.7	0.05
0	898	44.8	0.05
0	900	44.9	0.05
0	901	44.922044278	0.05
0	902	45	0.05
0	904	45.1	0.05
0	906	45.2	0.05
0	908	45.3	0.05
0	910	45.4	0.05
0	911	45.419649352	0.05
0	912	45.5	0.05
0	914	45.6	0.05
0	916	45.7	0.0495
0	916	45.7	0.0495
0	918	45.8	0.0499
0	920	45.9	0.05
0	921	45.907909552	0.05
0	922	46	0.05
0	924	46.1	0.05
0	926	46.2	0.05
0	928	46.3	0.05
0	929	46.355510695	0.05
0	930	46.4	0.05
0	932	46.5	0.05
0	934	46.6	0.05
0	936	46.7	0.05
0	938	46.8	0.05
0	939	46.810053331	0.05
0	940	46.9	0.05
0	943	47	0.05
0	945	47.1	0.05
0	947	47.2	0.05
0	949	47.3	0.05
0	950	47.321269951	0.05
0	951	47.4	0.05
0	953	47.5	0.05
0	955	47.6	0.05
0	957	47.7	0.05
0	958	47.752418062	0.05
0	959	47.8	0.05
0	961	47.9	0.05
0	963	48	0.05
0	965	48.1	0.05
0	967	48.2	0.05
0	968	48.217672138	0.05
0	969	48.3	0.05
0	971	48.4	0.05
0	973	48.5	0.05
0	975	48.6	0.05
0	977	48.7	0.05
0	978	48.731707294	0.05
0	979	48.8	0.05
0	981	48.9	0.05
0	982	48.982241299	0.05
0	983	49	0.05
0	985	49.1	0.05
0	987	49.2	0.05
0	989	49.3	0.05
0	991	49.4	0.05
0	993	49.5	0.05
0	994	49.535779507	0.05
0	995	49.6	0.05
0	997	49.7	0.05
0	999	49.8	0.05
0	1001	49.9	0.05
0	1003	50	0.05
0	1005	50.1	0.05
0	1007	50.2	0.05
0	1008	50.227670227	0.05
0	1009	50.3	0.05
0	1011	50.4	0.05
0	1013	50.5	0.05
0	1015	50.6	0.05
0	1018	50.7	0.05
0	1020	50.8	0.05
0	1020	50.864274787	0.05
0	1022	50.9	0.05
0	1024	51	0.05
0	1026	51.1	0.05
0	1028	51.2	0.05
0	1030	51.3	0.0495
0	1030	51.3	0.0495
0	1032	51.4	0.0499
0	1034	51.5	0.05
0	1036	51.6	0.05
0	1037	51.652378732094	0.05
0	1039	51.7	0.05
0	1041	51.8	0.05
0	1041	51.864329665	0.05
0	1043	51.9	0.05
0	1045	52	0.05
0	1047	52.1	0.05
0	1049	52.2	0.05
0	1051	52.3	0.05
0	1053	52.4	0.05
0	1055	52.5	0.05
0	1055	52.569753592	0.05
0	1057	52.6	0.05
0	1059	52.7	0.05
0	1061	52.8	0.05
0	1063	52.9	0.05
0	1065	53	0.05
0	1067	53.1	0.05
0	1067	53.1594946	0.05
0	1069	53.2	0.05
0	1071	53.3	0.05
0	1073	53.4	0.05
0	1075	53.5	0.05
0	1077	53.6	0.05
0	1079	53.7	0.05
0	1079	53.72197264	0.05
0	1081	53.8	0.05
0	1083	53.9	0.05
0	1085	54	0.05
0	1087	54.1	0.05
0	1089	54.2	0.05
0	1091	54.3	0.05
0	1091	54.346576138	0.05
0	1093	54.4	0.05
0	1095	54.5	0.05
0	1097	54.6	0.05
0	1099	54.7	0.05
0	1101	54.8	0.05
0	1101	54.877715104	0.05
0	1103	54.9	0.05
0	1105	55	0.05
0	1107	55.1	0.05
0	1109	55.2	0.05
0	1111	55.3	0.05
0	1113	55.4	0.05
0	1114	55.488388405	0.05
0	1115	55.5	0.05
0	1117	55.6	0.05
0	1119	55.7	0.05
0	1121	55.8	0.05
0	1123	55.9	0.05
0	1125	56	0.05
0	1125	56.052911914	0.05
0	1127	56.1	0.05
0	1129	56.2	0.05
0	1131	56.3	0.05
0	1133	56.4	0.05
0	1135	56.5	0.05
0	1135	56.512876195	0.05
0	1137	56.6	0.05
0	1139	56.7	0.05
0	1140	56.769634267061	0.05
0	1142	56.869634267061	0.05
0	1144	56.969634267061	0.05
0	1145	57.040567423	0.05
0	1146	57.069634267061	0.0495
0	1146	57.069634267061	0.0495
0	1148	57.169634267061	0.0495
0	1150	57.269634267061	0.0495
0	1152	57.369634267061	0.0495
0	1154	57.469634267061	0.0495
0	1156	57.569634267061	0.0495
0	1157	57.595415989	0.0495
0	1158	57.669634267061	0.0495
0	1160	57.769634267061	0.0495
0	1162	57.869634267061	0.0495
0	1164	57.969634267061	0.0495
0	1166	58.069634267061	0.0495
0	1167	58.134814549	0.0495
0	1168	58.169634267061	0.0495
0	1170	58.269634267061	0.0495
0	1172	58.369634267061	0.0495
0	1174	58.469634267061	0.0495
0	1176	58.569634267061	0.049005
0	1176	58.569634267061	0.049005
0	1177	58.595615038	0.049005
0	1178	58.669634267061	0.049005
0	1180	58.769634267061	0.049005
0	1182	58.869634267061	0.049005
0	1184	58.969634267061	0.049005
0	1185	59.008875148	0.049005
0	1186	59.069634267061	0.049005
0	1188	59.169634267061	0.049005
0	1190	59.269634267061	0.049005
0	1192	59.369634267061	0.049005
0	1194	59.469634267061	0.049005
0	1195	59.556190852	0.049005
0	1196	59.558306378151	0.049005
0	1197	59.569634267061	0.04905031155564
0	1199	59.669634267061	0.04945031155564
0	1200	59.682056378151	0.0495
0	1202	59.769634267061	0.04985031155564
0	1204	59.807056378151	0.0495
0	1204	59.807056378151	0.0495
0	1204	59.833552573	0.049605984779396
0	1205	59.869634267061	0.04975031155564
0	1207	59.932056378151	0.05
0	1208	59.969634267061	0.05
0	1210	60.069634267061	0.05
0	1211	60.107123572	0.05
0	1212	60.169634267061	0.05
0	1214	60.269634267061	0.05
0	1215	60.336948877	0.05
0	1216	60.369634267061	0.05
0	1218	60.469634267061	0.05
0	1220	60.569634267061	0.05
0	1222	60.669634267061	0.05
0	1224	60.769634267061	0.05
0	1226	60.869634267061	0.05
0	1227	60.908342002	0.05
0	1228	60.969634267061	0.05
0	1230	61.069634267061	0.0495
0	1230	61.069634267061	0.0495
0	1232	61.169634267061	0.0499
0	1234	61.269634267061	0.05
0	1235	61.367632822	0.05
0	1236	61.369634267061	0.05
0	1238	61.469634267061	0.05
0	1240	61.569634267061	0.05
0	1242	61.669634267061	0.05
0	1244	61.769634267061	0.05
0	1246	61.869634267061	0.05
0	1246	61.881048943	0.05
0	1248	61.969634267061	0.05
0	1250	62.069634267061	0.05
0	1252	62.169634267061	0.05
0	1254	62.269634267061	0.05
0	1256	62.369634267061	0.05
0	1258	62.469634267061	0.05
0	1258	62.472369685	0.05
0	1260	62.569634267061	0.05
0	1262	62.669634267061	0.05
0	1264	62.769634267061	0.05
0	1266	62.869634267061	0.05
0	1268	62.969634267061	0.05
0	1270	63.069634267061	0.05
0	1271	63.143910424	0.05
0	1272	63.169634267061	0.05
0	1274	63.269634267061	0.05
0	1276	63.369634267061	0.05
0	1278	63.469634267061	0.05
0	1280	63.569634267061	0.05
0	1282	63.669634267061	0.05
0	1283	63.7212856	0.05
0	1284	63.769634267061	0.05
0	1286	63.869634267061	0.05
0	1288	63.969634267061	0.0495
0	1288	63.969634267061	0.0495
0	1290	64.069634267061	0.0499
0	1292	64.169634267061	0.05
0	1294	64.269634267061	0.05
0	1295	64.290520729	0.05
0	1296	64.369634267061	0.05
0	1298	64.469634267061	0.05
0	1300	64.569634267061	0.05
0	1302	64.669634267061	0.05
0	1304	64.769634267061	0.05
0	1306	64.869634267061	0.05
0	1308	64.969634267061	0.05
0	1308	64.97924047	0.05
0	1310	65.069634267061	0.05
0	1312	65.169634267061	0.05
0	1314	65.269634267061	0.05
0	1316	65.369634267061	0.05
0	1318	65.469634267061	0.0495
0	1318	65.469634267061	0.0495
0	1320	65.569634267061	0.0499
0	1321	65.596007704	0.05
0	1322	65.669634267061	0.05
0	1324	65.769634267061	0.05
0	1326	65.869634267061	0.05
0	1328	65.969634267061	0.05
0	1330	66.069634267061	0.05
0	1331	66.14356852	0.05
0	1332	66.169634267061	0.05
0	1334	66.269634267061	0.05
0	1336	66.369634267061	0.05
0	1338	66.469634267061	0.05
0	1340	66.569634267061	0.05
0	1342	66.669634267061	0.05
0	1343	66.748356568	0.05
0	1344	66.769634267061	0.05
0	1346	66.869634267061	0.0495
0	1346	66.869634267061	0.0495
0	1348	66.969634267061	0.0499
0	1350	67.069634267061	0.05
0	1352	67.169634267061	0.05
0	1353	67.247700823	0.05
0	1354	67.269634267061	0.05
0	1356	67.369634267061	0.05
0	1358	67.469634267061	0.05
0	1360	67.569634267061	0.05
0	1362	67.669634267061	0.05
0	1362	67.673554534	0.05
0	1364	67.769634267061	0.05
0	1366	67.869634267061	0.05
0	1368	67.969634267061	0.05
0	1370	68.069634267061	0.05
0	1372	68.169634267061	0.05
0	1373	68.253755332	0.05
0	1374	68.269634267061	0.0495
0	1374	68.269634267061	0.0495
0	1376	68.369634267061	0.0499
0	1378	68.469634267061	0.05
0	1380	68.569634267061	0.05
0	1382	68.669634267061	0.05
0	1384	68.769634267061	0.05
0	1386	68.869634267061	0.05
0	1388	68.969634267061	0.05
0	1389	68.998434283	0.05
0	1390	69.069634267061	0.05
0	1392	69.169634267061	0.05
0	1394	69.269634267061	0.05
0	1396	69.369634267061	0.05
0	1398	69.469634267061	0.05
0	1398	69.472493035	0.05
0	1400	69.569634267061	0.05
0	1402	69.669634267061	0.05
0	1404	69.769634267061	0.0495
0	1404	69.769634267061	0.0495
0	1406	69.869634267061	0.0499
0	1407	69.903898867	0.05
0	1408	69.969634267061	0.05
0	1410	70.069634267061	0.05
0	1412	70.169634267061	0.05
0	1414	70.269634267061	0.05
0	1415	70.343258728	0.05
0	1416	70.369634267061	0.05
0	1418	70.469634267061	0.05
0	1420	70.569634267061	0.05
0	1422	70.669634267061	0.05
0	1423	70.735079707	0.05
0	1424	70.769634267061	0.05
0	1426	70.869634267061	0.05
0	1428	70.969634267061	0.05
0	1430	71.069634267061	0.05
0	1432	71.169634267061	0.0495
0	1432	71.169634267061	0.0495
0	1433	71.248932133	0.049817191463756
0	1434	71.269634267061	0.0499
0	1436	71.369634267061	0.05
0	1438	71.469634267061	0.05
0	1440	71.569634267061	0.05
0	1442	71.669634267061	0.05
0	1444	71.769634267061	0.05
0	1444	71.78204056	0.05
0	1446	71.869634267061	0.05
0	1448	71.969634267061	0.05
0	1450	72.069634267061	0.05
0	1452	72.169634267061	0.05
0	1454	72.269634267061	0.05
0	1456	72.369634267061	0.05
0	1457	72.423483265	0.05
0	1458	72.469634267061	0.05
0	1460	72.569634267061	0.0495
0	1460	72.569634267061	0.0495
0	1462	72.669634267061	0.0499
0	1464	72.769634267061	0.05
0	1466	72.869634267061	0.05
0	1467	72.892194001	0.05
0	1468	72.969634267061	0.05
0	1470	73.069634267061	0.05
0	1472	73.169634267061	0.05
0	1474	73.269634267061	0.05
0	1475	73.328945329	0.05
0	1476	73.369634267061	0.05
0	1478	73.469634267061	0.05
0	1480	73.569634267061	0.05
0	1482	73.669634267061	0.05
0	1484	73.769634267061	0.05
0	1485	73.824577822	0.05
0	1486	73.869634267061	0.05
0	1488	73.969634267061	0.0495
0	1488	73.969634267061	0.0495
0	1490	74.069634267061	0.0499
0	1492	74.169634267061	0.05
0	1494	74.269634267061	0.05
0	1495	74.3203669	0.05
0	1496	74.369634267061	0.05
0	1498	74.469634267061	0.05
0	1499	74.557603369	0.05
0	1500	74.569634267061	0.05
0	1502	74.669634267061	0.05
0	1504	74.769634267061	0.05
0	1505	74.805766786	0.05
0	1506	74.869634267061	0.05
0	1508	74.969634267061	0.05
0	1510	75.069634267061	0.05
0	1512	75.169634267061	0.05
0	1513	75.220518511	0.05
0	1514	75.269634267061	0.0495
0	1514	75.269634267061	0.0495
0	1516	75.369634267061	0.0499
0	1518	75.469634267061	0.05
0	1519	75.508632124	0.05
0	1520	75.569634267061	0.05
0	1522	75.669634267061	0.05
0	1524	75.769634267061	0.05
0	1526	75.869634267061	0.05
0	1528	75.969634267061	0.05
0	1528	75.983526229	0.05
0	1530	76.069634267061	0.05
0	1532	76.169634267061	0.05
0	1534	76.269634267061	0.05
0	1536	76.369634267061	0.05
0	1537	76.459372705	0.05
0	1538	76.469634267061	0.05
0	1540	76.569634267061	0.05
0	1542	76.669634267061	0.0495
0	1542	76.669634267061	0.0495
0	1544	76.769634267061	0.0499
0	1546	76.869634267061	0.05
0	1547	76.888488139	0.05
0	1548	76.969634267061	0.05
0	1550	77.069634267061	0.05
0	1552	77.169634267061	0.05
0	1554	77.269634267061	0.05
0	1555	77.36749156	0.05
0	1556	77.369634267061	0.05
0	1558	77.469634267061	0.05
0	1560	77.569634267061	0.05
0	1562	77.669634267061	0.05
0	1564	77.769634267061	0.05
0	1566	77.869634267061	0.05
0	1567	77.90023615	0.05
0	1568	77.969634267061	0.05
0	1570	78.069634267061	0.0495
0	1570	78.069634267061	0.0495
0	1572	78.169634267061	0.0499
0	1574	78.269634267061	0.05
0	1575	78.32650966	0.05
0	1576	78.369634267061	0.05
0	1578	78.469634267061	0.05
0	1580	78.569634267061	0.05
0	1582	78.669634267061	0.05
0	1584	78.769634267061	0.05
0	1586	78.869634267061	0.05
0	1587	78.907655761	0.05
0	1588	78.969634267061	0.05
0	1590	79.069634267061	0.05
0	1592	79.169634267061	0.05
0	1594	79.269634267061	0.05
0	1596	79.369634267061	0.05
0	1598	79.469634267061	0.05
0	1600	79.493268274026	0.0495
0	1600	79.493268274026	0.0495
0	1600	79.544437225	0.0495
0	1601	79.569634267061	0.0495
0	1603	79.669634267061	0.0495
0	1605	79.769634267061	0.0495
0	1607	79.869634267061	0.0495
0	1608	79.964221633	0.0495
0	1609	79.969634267061	0.0495
0	1611	80.069634267061	0.0495
0	1613	80.169634267061	0.0495
0	1615	80.269634267061	0.0495
0	1617	80.369634267061	0.0495
0	1618	80.465927329	0.0495
0	1619	80.469634267061	0.0495
0	1621	80.569634267061	0.0495
0	1623	80.669634267061	0.0495
0	1625	80.769634267061	0.0495
0	1627	80.869634267061	0.0495
0	1629	80.969634267061	0.0495
0	1630	81.024939238	0.0495
0	1631	81.066630320594	0.0495
0	1632	81.069634267061	0.049512015785868
0	1634	81.169634267061	0.049912015785868
0	1636	81.191630320594	0.05
0	1637	81.269634267061	0.05
0	1639	81.369634267061	0.05
0	1641	81.469634267061	0.05
0	1642	81.52069996	0.05
0	1643	81.569634267061	0.05
0	1645	81.669634267061	0.05
0	1647	81.769634267061	0.05
0	1649	81.869634267061	0.05
0	1650	81.946991857	0.05
0	1651	81.969634267061	0.05
0	1653	82.069634267061	0.05
0	1655	82.169634267061	0.05
0	1657	82.269634267061	0.05
0	1659	82.369634267061	0.05
0	1661	82.469634267061	0.05
0	1662	82.503945769	0.05
0	1663	82.569634267061	0.05
0	1665	82.669634267061	0.05
0	1667	82.769634267061	0.05
0	1669	82.869634267061	0.05
0	1671	82.969634267061	0.05
0	1672	83.06822599	0.05
0	1673	83.069634267061	0.05
0	1675	83.169634267061	0.05
0	1677	83.269634267061	0.05
0	1678	83.351067043	0.05
0	1679	83.369634267061	0.05
0	1681	83.469634267061	0.05
0	1683	83.569634267061	0.05
0	1685	83.669634267061	0.05
0	1687	83.769634267061	0.05
0	1689	83.869634267061	0.05
0	1690	83.904263068	0.05
0	1691	83.909081031095	0.05
0	1692	83.969634267061	0.05
0	1694	84.069634267061	0.05
0	1696	84.169634267061	0.05
0	1698	84.269634267061	0.05
0	1699	84.295430227	0.05
0	1700	84.369634267061	0.05
0	1702	84.469634267061	0.05
0	1704	84.569634267061	0.05
0	1705	84.586220719	0.05
0	1706	84.669634267061	0.05
0	1708	84.769634267061	0.05
0	1710	84.869634267061	0.05
0	1712	84.969634267061	0.0495
0	1712	84.969634267061	0.0495
0	1713	85.064864605	0.0495
0	1714	85.069634267061	0.0495
0	1716	85.169634267061	0.0495
0	1718	85.269634267061	0.0495
0	1720	85.369634267061	0.0495
0	1722	85.469634267061	0.0495
0	1724	85.569634267061	0.0495
0	1725	85.633262605	0.0495
0	1726	85.669634267061	0.0495
0	1728	85.769634267061	0.0495
0	1730	85.869634267061	0.0495
0	1732	85.969634267061	0.0495
0	1734	86.069634267061	0.0495
0	1736	86.169634267061	0.0495
0	1738	86.269634267061	0.0495
0	1738	86.275305589	0.0495
0	1740	86.369634267061	0.049005
0	1740	86.369634267061	0.049005
0	1742	86.469634267061	0.049005
0	1744	86.569634267061	0.049005
0	1746	86.669634267061	0.049005
0	1748	86.769634267061	0.049005
0	1749	86.846158126	0.049005
0	1750	86.869634267061	0.049005
0	1752	86.969634267061	0.049005
0	1754	87.069634267061	0.049005
0	1756	87.169634267061	0.049005
0	1758	87.269634267061	0.049005
0	1759	87.328017328	0.049005
0	1760	87.369634267061	0.049005
0	1762	87.469634267061	0.049005
0	1764	87.569634267061	0.049005
0	1766	87.669634267061	0.049005
0	1767	87.754733458	0.049005
0	1768	87.769634267061	0.04851495
0	1768	87.769634267061	0.04851495
0	1770	87.869634267061	0.04851495
0	1772	87.969634267061	0.04851495
0	1774	88.069634267061	0.04851495
0	1776	88.169634267061	0.04851495
0	1778	88.269634267061	0.04851495
0	1779	88.316690434	0.04851495
0	1780	88.369634267061	0.04851495
0	1782	88.469634267061	0.04851495
0	1784	88.569634267061	0.04851495
0	1786	88.669634267061	0.04851495
0	1788	88.769634267061	0.04851495
0	1789	88.831977001	0.04851495
0	1790	88.869634267061	0.04851495
0	1792	88.969634267061	0.04851495
0	1794	89.069634267061	0.04851495
0	1796	89.169634267061	0.04851495
0	1798	89.269634267061	0.0480298005
0	1798	89.269634267061	0.0480298005
0	1799	89.319931819	0.0480298005
0	1800	89.369634267061	0.0480298005
0	1802	89.469634267061	0.0480298005
0	1804	89.569634267061	0.0480298005
0	1806	89.669634267061	0.0480298005
0	1808	89.769634267061	0.0480298005
0	1809	89.795737507	0.0480298005
0	1810	89.869634267061	0.0480298005
0	1812	89.969634267061	0.0480298005
0	1814	90.069634267061	0.0480298005
0	1816	90.169634267061	0.0480298005
0	1818	90.269634267061	0.0480298005
0	1819	90.311096611	0.0480298005
0	1820	90.369634267061	0.0480298005
0	1822	90.469634267061	0.0480298005
0	1824	90.569634267061	0.0480298005
0	1826	90.669634267061	0.047549502495
0	1826	90.669634267061	0.047549502495
0	1828	90.769634267061	0.047549502495
0	1829	90.803915767	0.047549502495
0	1830	90.869634267061	0.047549502495
0	1832	90.969634267061	0.047549502495
0	1834	91.069634267061	0.047549502495
0	1835	91.099405948	0.047549502495
0	1836	91.169634267061	0.047549502495
0	1838	91.269634267061	0.047549502495
0	1840	91.369634267061	0.047549502495
0	1842	91.469634267061	0.047549502495
0	1843	91.56140437	0.047549502495
0	1844	91.569634267061	0.047549502495
0	1846	91.669634267061	0.047549502495
0	1848	91.769634267061	0.047549502495
0	1850	91.869634267061	0.047549502495
0	1852	91.969634267061	0.047549502495
0	1853	92.050069537	0.04707400747005
0	1853	92.050069537	0.04707400747005
0	1854	92.069634267061	0.04707400747005
0	1856	92.169634267061	0.04707400747005
0	1858	92.269634267061	0.04707400747005
0	1860	92.369634267061	0.04707400747005
0	1862	92.469634267061	0.04707400747005
0	1864	92.569634267061	0.04707400747005
0	1865	92.656833478	0.04707400747005
0	1866	92.669634267061	0.04707400747005
0	1868	92.769634267061	0.04707400747005
0	1870	92.869634267061	0.04707400747005
0	1872	92.969634267061	0.04707400747005
0	1873	93.065929636	0.04707400747005
0	1874	93.069634267061	0.04707400747005
0	1876	93.169634267061	0.04707400747005
0	1878	93.269634267061	0.04707400747005
0	1880	93.369634267061	0.04707400747005
0	1882	93.469634267061	0.04660326739535
0	1882	93.469634267061	0.04660326739535
0	1883	93.539789404	0.04660326739535
0	1884	93.569634267061	0.04660326739535
0	1886	93.669634267061	0.04660326739535
0	1888	93.769634267061	0.04660326739535
0	1890	93.869634267061	0.04660326739535
0	1892	93.969634267061	0.04660326739535
0	1893	93.996159178	0.04660326739535
0	1894	94.069634267061	0.04660326739535
0	1896	94.169634267061	0.04660326739535
0	1898	94.269634267061	0.04660326739535
0	1899	94.288719544	0.04660326739535
0	1900	94.369634267061	0.04660326739535
0	1902	94.469634267061	0.04660326739535
0	1904	94.569634267061	0.04660326739535
0	1906	94.669634267061	0.04660326739535
0	1908	94.769634267061	0.04660326739535
0	1909	94.816690186	0.046137234721396
0	1909	94.816690186	0.046137234721396
0	1910	94.869634267061	0.046137234721396
0	1912	94.969634267061	0.046137234721396
0	1914	95.069634267061	0.046137234721396
0	1916	95.169634267061	0.046137234721396
0	1918	95.269634267061	0.046137234721396
0	1920	95.369634267061	0.046137234721396
0	1921	95.436769546	0.046137234721396
0	1922	95.469634267061	0.046137234721396
0	1924	95.569634267061	0.046137234721396
0	1926	95.669634267061	0.046137234721396
0	1928	95.769634267061	0.046137234721396
0	1930	95.869634267061	0.046137234721396
0	1930	95.88151369	0.046137234721396
0	1932	95.969634267061	0.046137234721396
0	1934	96.069634267061	0.046137234721396
0	1936	96.169634267061	0.046137234721396
0	1938	96.269634267061	0.045675862374182
0	1938	96.269634267061	0.045675862374182
0	1939	96.311467735	0.045675862374182
0	1940	96.369634267061	0.045675862374182
0	1942	96.469634267061	0.045675862374182
0	1944	96.569634267061	0.045675862374182
0	1946	96.669634267061	0.045675862374182
0	1948	96.769634267061	0.045675862374182
0	1949	96.820013971	0.045675862374182
0	1950	96.869634267061	0.045675862374182
0	1952	96.969634267061	0.045675862374182
0	1954	97.069634267061	0.045675862374182
0	1956	97.169634267061	0.045675862374182
0	1957	97.269570673	0.045675862374182
0	1958	97.269634267061	0.045675862374182
0	1960	97.369634267061	0.045675862374182
0	1962	97.469634267061	0.045675862374182
0	1964	97.569634267061	0.045675862374182
0	1966	97.669634267061	0.04521910375044
0	1966	97.669634267061	0.04521910375044
0	1967	97.766122741	0.04521910375044
0	1968	97.769634267061	0.04521910375044
0	1970	97.869634267061	0.04521910375044
0	1972	97.969634267061	0.04521910375044
0	1974	98.069634267061	0.04521910375044
0	1976	98.169634267061	0.04521910375044
0	1977	98.266194859	0.04521910375044
0	1978	98.269634267061	0.04521910375044
0	1980	98.369634267061	0.04521910375044
0	1982	98.469634267061	0.04521910375044
0	1983	98.560735519	0.04521910375044
0	1984	98.569634267061	0.04521910375044
0	1986	98.669634267061	0.04521910375044
0	1988	98.769634267061	0.04521910375044
0	1990	98.869634267061	0.04521910375044
0	1992	98.969634267061	0.04521910375044
0	1993	98.99832709	0.044766912712936
0	1993	98.99832709	0.044766912712936
0	1994	99.069634267061	0.044766912712936
0	1996	99.169634267061	0.044766912712936
0	1998	99.269634267061	0.044766912712936
0	2000	99.369634267061	0.044766912712936
0	2002	99.469634267061	0.044766912712936
0	2004	99.569634267061	0.044766912712936
0	2005	99.594645112	0.044766912712936
0	2006	99.669634267061	0.044766912712936
0	2008	99.769634267061	0.044766912712936
0	2010	99.869634267061	0.044766912712936
0	2012	99.969634267061	0.044766912712936
0	2014	100.069634267061	0.044766912712936
0	2015	100.162817704	0.044766912712936
0	2016	100.169634267061	0.044766912712936
0	2018	100.269634267061	0.044766912712936
0	2020	100.369634267061	0.044766912712936
0	2022	100.469634267061	0.044319243585806
0	2022	100.469634267061	0.044319243585806
0	2024	100.569634267061	0.044319243585806
0	2026	100.669634267061	0.044319243585806
0	2027	100.69612987	0.044319243585806
0	2028	100.769634267061	0.044319243585806
0	2030	100.869634267061	0.044319243585806
0	2031	100.872069743155	0.044319243585806
0	2034	100.917258846703	0.0445
0	2035	100.969634267061	0.044709501681432
0	2037	101.042258846703	0.045
0	2038	101.069634267061	0.045109501681432
0	2039	101.148869533	0.045426442745188
0	2040	101.167258846703	0.0455
0	2041	101.169634267061	0.045509501681432
0	2043	101.269634267061	0.045909501681432
0	2044	101.292258846703	0.046
0	2046	101.369634267061	0.046309501681432
0	2048	101.417258846703	0.0465
0	2049	101.469634267061	0.046709501681432
0	2051	101.542258846703	0.047
0	2052	101.569634267061	0.046638406664618
0	2052	101.569634267061	0.046638406664618
0	2052	101.576894764	0.046667448652374
0	2054	101.667258846703	0.0475
0	2055	101.669634267061	0.047509501681432
0	2057	101.769634267061	0.047909501681432
0	2058	101.792258846703	0.048
0	2060	101.869634267061	0.048309501681432
0	2062	101.917258846703	0.0485
0	2063	101.969634267061	0.048709501681432
0	2065	102.042258846703	0.049
0	2066	102.069634267061	0.049109501681432
0	2067	102.109102159	0.049267373249188
0	2068	102.164864146876	0.049490421200692
0	2069	102.167258846703	0.0495
0	2071	102.264864146876	0.049890421200692
0	2072	102.292258846703	0.05
0	2074	102.364864146876	0.05
0	2076	102.464864146876	0.05
0	2078	102.564864146876	0.05
0	2078	102.589213663	0.05
0	2080	102.664864146876	0.0495
0	2080	102.664864146876	0.0495
0	2082	102.764864146876	0.0499
0	2084	102.864864146876	0.05
0	2086	102.964864146876	0.05
0	2088	103.064864146876	0.05
0	2089	103.164475396	0.05
0	2090	103.164864146876	0.05
0	2092	103.264864146876	0.05
0	2094	103.364864146876	0.05
0	2096	103.464864146876	0.05
0	2098	103.564864146876	0.05
0	2100	103.664864146876	0.05
0	2102	103.764864146876	0.05
0	2102	103.778585476	0.05
0	2104	103.864864146876	0.05
0	2106	103.964864146876	0.05
0	2108	104.064864146876	0.05
0	2110	104.164864146876	0.0495
0	2110	104.164864146876	0.0495
0	2112	104.264864146876	0.0499
0	2113	104.348083825	0.05
0	2114	104.364864146876	0.05
0	2116	104.464864146876	0.05
0	2118	104.564864146876	0.05
0	2120	104.664864146876	0.05
0	2122	104.764864146876	0.05
0	2123	104.853197134	0.05
0	2124	104.864864146876	0.05
0	2126	104.964864146876	0.05
0	2128	105.064864146876	0.05
0	2130	105.164864146876	0.05
0	2132	105.264864146876	0.05
0	2133	105.344522104	0.05
0	2134	105.364864146876	0.05
0	2136	105.464864146876	0.05
0	2138	105.564864146876	0.0495
0	2138	105.564864146876	0.0495
0	2140	105.664864146876	0.0499
0	2142	105.764864146876	0.05
0	2143	105.83541742	0.05
0	2144	105.864864146876	0.05
0	2147	105.964864146876	0.05
0	2149	106.064864146876	0.05
0	2151	106.164864146876	0.05
0	2153	106.264864146876	0.05
0	2155	106.364864146876	0.05
0	2156	106.444588597	0.05
0	2157	106.464864146876	0.05
0	2159	106.564864146876	0.05
0	2161	106.664864146876	0.05
0	2163	106.764864146876	0.05
0	2165	106.864864146876	0.05
0	2167	106.964864146876	0.05
0	2169	107.064864146876	0.05
0	2170	107.140461202	0.05
0	2171	107.164864146876	0.05
0	2173	107.264864146876	0.05
0	2175	107.364864146876	0.05
0	2177	107.464864146876	0.05
0	2179	107.564864146876	0.05
0	2181	107.664864146876	0.05
0	2181	107.685061774	0.05
0	2183	107.764864146876	0.05
0	2185	107.864864146876	0.05
0	2187	107.964864146876	0.05
0	2189	108.064864146876	0.05
0	2191	108.164864146876	0.05
0	2193	108.264864146876	0.05
0	2194	108.267600635962	0.05
0	2194	108.319847014	0.05
0	2196	108.367600635962	0.0495
0	2196	108.367600635962	0.0495
0	2198	108.467600635962	0.0499
0	2200	108.567600635962	0.05
0	2202	108.667600635962	0.05
0	2204	108.767600635962	0.05
0	2206	108.867600635962	0.05
0	2208	108.967600635962	0.05
0	2209	109.067282146	0.05
0	2210	109.067600635962	0.05
0	2212	109.167600635962	0.05
0	2214	109.267600635962	0.05
0	2216	109.367600635962	0.05
0	2218	109.467600635962	0.05
0	2220	109.567600635962	0.05
0	2220	109.619123209	0.05
0	2222	109.667600635962	0.05
0	2224	109.767600635962	0.05
0	2226	109.867600635962	0.0495
0	2226	109.867600635962	0.0495
0	2226	109.882360024	0.049559037552152
0	2228	109.967600635962	0.0499
0	2230	110.067600635962	0.05
0	2232	110.167600635962	0.05
0	2234	110.267600635962	0.05
0	2235	110.339802298	0.05
0	2236	110.367600635962	0.05
0	2238	110.467600635962	0.05
0	2240	110.567600635962	0.05
0	2242	110.667600635962	0.05
0	2244	110.767600635962	0.05
0	2246	110.867600635962	0.05
0	2248	110.967600635962	0.05
0	2248	110.976289636	0.05
0	2250	111.067600635962	0.05
0	2252	111.167600635962	0.05
0	2254	111.267600635962	0.0495
0	2254	111.267600635962	0.0495
0	2256	111.367600635962	0.0499
0	2258	111.467600635962	0.05
0	2260	111.567600635962	0.05
0	2260	111.601095943	0.05
0	2262	111.667600635962	0.05
0	2264	111.767600635962	0.05
0	2266	111.867600635962	0.05
0	2268	111.967600635962	0.05
0	2270	112.067600635962	0.05
0	2272	112.167600635962	0.05
0	2272	112.203753112	0.05
0	2274	112.267600635962	0.05
0	2276	112.367600635962	0.05
0	2278	112.467600635962	0.05
0	2280	112.567600635962	0.05
0	2282	112.667600635962	0.05
0	2284	112.767600635962	0.0495
0	2284	112.767600635962	0.0495
0	2285	112.824413782	0.049727252584152
0	2286	112.867600635962	0.0499
0	2288	112.967600635962	0.05
0	2290	113.067600635962	0.05
0	2292	113.167600635962	0.05
0	2294	113.267600635962	0.05
0	2296	113.367600635962	0.05
0	2297	113.397700206988	0.05
0	2299	113.497700206988	0.05
0	2300	113.590435249	0.05
0	2301	113.597700206988	0.05
0	2303	113.697700206988	0.05
0	2305	113.797700206988	0.05
0	2307	113.897700206988	0.05
0	2309	113.997700206988	0.05
0	2311	114.097700206988	0.05
0	2313	114.197700206988	0.05
0	2315	114.297700206988	0.05
0	2315	114.299584321	0.05
0	2317	114.397700206988	0.05
0	2319	114.497700206988	0.05
0	2321	114.597700206988	0.05
0	2323	114.697700206988	0.05
0	2325	114.797700206988	0.05
0	2327	114.897700206988	0.05
0	2328	114.969245437	0.05
0	2329	114.997700206988	0.05
0	2331	115.097700206988	0.05
0	2333	115.197700206988	0.05
0	2335	115.297700206988	0.05
0	2337	115.397700206988	0.05
0	2339	115.497700206988	0.05
0	2340	115.577061544	0.05
0	2341	115.597700206988	0.05
0	2343	115.697700206988	0.05
0	2345	115.797700206988	0.05
0	2347	115.897700206988	0.05
0	2349	115.997700206988	0.05
0	2351	116.097700206988	0.05
0	2352	116.141153233	0.05
0	2353	116.197700206988	0.05
0	2355	116.297700206988	0.05
0	2357	116.397700206988	0.05
0	2359	116.497700206988	0.05
0	2361	116.597700206988	0.05
0	2362	116.617838713	0.05
0	2363	116.697700206988	0.05
0	2365	116.797700206988	0.05
0	2367	116.897700206988	0.05
0	2369	116.997700206988	0.05
0	2371	117.028810240277	0.05
0	2372	117.097700206988	0.0495
0	2372	117.097700206988	0.0495
0	2374	117.197700206988	0.0495
0	2376	117.297700206988	0.0495
0	2377	117.344087269	0.0495
0	2378	117.397700206988	0.0495
0	2380	117.497700206988	0.0495
0	2382	117.597700206988	0.0495
0	2384	117.697700206988	0.0495
0	2386	117.797700206988	0.0495
0	2388	117.897700206988	0.0495
0	2389	117.924995677	0.0495
0	2390	117.997700206988	0.0495
0	2392	118.097700206988	0.0495
0	2394	118.197700206988	0.0495
0	2397	118.297700206988	0.0495
0	2397	118.380353737	0.0495
0	2399	118.397700206988	0.0495
0	2401	118.497700206988	0.0495
0	2403	118.597700206988	0.0495
0	2405	118.697700206988	0.0495
0	2405	118.790218624	0.0495
0	2407	118.797700206988	0.0495
0	2409	118.897700206988	0.0495
0	2411	118.997700206988	0.0495
0	2413	119.097700206988	0.0495
0	2415	119.197700206988	0.0495
0	2415	119.262358783	0.0495
0	2417	119.297700206988	0.0495
0	2419	119.397700206988	0.0495
0	2421	119.497700206988	0.0495
0	2423	119.597700206988	0.0495
0	2425	119.697700206988	0.0495
0	2425	119.772664291	0.0495
0	2427	119.797700206988	0.0495
0	2429	119.897700206988	0.0495
0	2431	119.997700206988	0.0495
0	2432	120.036703407716	0.0495
0	2434	120.136703407716	0.0495
0	2436	120.236703407716	0.0495
0	2437	120.331731838	0.0495
0	2438	120.336703407716	0.0495
0	2440	120.436703407716	0.0495
0	2442	120.536703407716	0.0495
0	2444	120.636703407716	0.0495
0	2446	120.736703407716	0.0495
0	2448	120.836703407716	0.0495
0	2450	120.936703407716	0.0495
0	2450	120.9481141	0.0495
0	2452	121.036703407716	0.0495
0	2454	121.136703407716	0.0495
0	2456	121.236703407716	0.0495
0	2458	121.336703407716	0.049005
0	2458	121.336703407716	0.049005
0	2460	121.436703407716	0.049005
0	2462	121.536703407716	0.049005
0	2462	121.589630227	0.049005
0	2464	121.636703407716	0.049005
0	2466	121.736703407716	0.049005
0	2468	121.836703407716	0.049005
0	2470	121.936703407716	0.049005
0	2472	122.036703407716	0.049005
0	2474	122.136703407716	0.049005
0	2476	122.236703407716	0.049005
0	2476	122.239963405	0.049005
0	2478	122.336703407716	0.049005
0	2480	122.436703407716	0.049005
0	2482	122.536703407716	0.049005
0	2484	122.636703407716	0.049005
0	2486	122.736703407716	0.049005
0	2488	122.836703407716	0.04851495
0	2488	122.836703407716	0.04851495
0	2489	122.935586389	0.04851495
0	2490	122.936703407716	0.04851495
0	2492	123.036703407716	0.04851495
0	2494	123.136703407716	0.04851495
0	2496	123.236703407716	0.04851495
0	2498	123.336703407716	0.04851495
0	2499	123.435094534	0.04851495
0	2500	123.436703407716	0.04851495
0	2502	123.536703407716	0.04851495
0	2504	123.636703407716	0.04851495
0	2506	123.736703407716	0.04851495
0	2508	123.836703407716	0.04851495
0	2510	123.936703407716	0.04851495
0	2511	124.000352122	0.04851495
0	2512	124.036703407716	0.04851495
0	2514	124.136703407716	0.04851495
0	2516	124.236703407716	0.0480298005
0	2516	124.236703407716	0.0480298005
0	2518	124.336703407716	0.0480298005
0	2520	124.436703407716	0.0480298005
0	2522	124.536703407716	0.0480298005
0	2523	124.582335202	0.0480298005
0	2524	124.636703407716	0.0480298005
0	2526	124.736703407716	0.0480298005
0	2528	124.836703407716	0.0480298005
0	2530	124.936703407716	0.0480298005
0	2532	125.036703407716	0.0480298005
0	2532	125.038765351	0.0480298005
0	2534	125.136703407716	0.0480298005
0	2536	125.236703407716	0.0480298005
0	2538	125.336703407716	0.0480298005
0	2540	125.436703407716	0.0480298005
0	2542	125.536703407716	0.0480298005
0	2543	125.553970759	0.0480298005
0	2544	125.585881967393	0.047549502495
0	2544	125.585881967393	0.047549502495
0	2546	125.685881967393	0.047549502495
0	2548	125.785881967393	0.047549502495
0	2550	125.885881967393	0.047549502495
0	2552	125.985881967393	0.047549502495
0	2552	125.991799741	0.047549502495
0	2554	126.085881967393	0.047549502495
0	2556	126.185881967393	0.047549502495
0	2558	126.285881967393	0.047549502495
0	2560	126.385881967393	0.047549502495
0	2560	126.431063392	0.047549502495
0	2562	126.485881967393	0.047549502495
0	2564	126.585881967393	0.047549502495
0	2566	126.685881967393	0.047549502495
0	2566	126.711706585	0.047549502495
0	2568	126.785881967393	0.047549502495
0	2570	126.885881967393	0.047549502495
0	2572	126.985881967393	0.04707400747005
0	2572	126.985881967393	0.04707400747005
0	2574	127.085881967393	0.04707400747005
0	2576	127.185881967393	0.04707400747005
0	2576	127.230559249	0.04707400747005
0	2578	127.285881967393	0.04707400747005
0	2580	127.385881967393	0.04707400747005
0	2582	127.485881967393	0.04707400747005
0	2582	127.526827105	0.04707400747005
0	2584	127.585881967393	0.04707400747005
0	2586	127.685881967393	0.04707400747005
0	2588	127.785881967393	0.04707400747005
0	2590	127.885881967393	0.04707400747005
0	2593	127.985881967393	0.04707400747005
0	2593	128.008459228	0.04707400747005
0	2595	128.085881967393	0.04707400747005
0	2597	128.185881967393	0.04707400747005
0	2599	128.285881967393	0.04707400747005
0	2601	128.385881967393	0.04660326739535
0	2601	128.385881967393	0.04660326739535
0	2603	128.485881967393	0.04660326739535
0	2603	128.523401371	0.04660326739535
0	2605	128.585881967393	0.04660326739535
0	2607	128.685881967393	0.04660326739535
0	2609	128.785881967393	0.04660326739535
0	2611	128.885881967393	0.04660326739535
0	2613	128.985881967393	0.04660326739535
0	2613	129.003899101	0.04660326739535
0	2615	129.085881967393	0.04660326739535
0	2617	129.185881967393	0.04660326739535
0	2619	129.285881967393	0.04660326739535
0	2621	129.385881967393	0.04660326739535
0	2623	129.427515489879	0.04660326739535
0	2624	129.513517456	0.04660326739535
0	2626	129.527515489879	0.04660326739535
0	2628	129.627515489879	0.04660326739535
0	2630	129.727515489879	0.046137234721396
0	2630	129.727515489879	0.046137234721396
0	2632	129.827515489879	0.046137234721396
0	2634	129.927515489879	0.046137234721396
0	2634	130.019689933	0.046137234721396
0	2636	130.027515489879	0.046137234721396
0	2638	130.127515489879	0.046137234721396
0	2640	130.227515489879	0.046137234721396
0	2642	130.327515489879	0.046137234721396
0	2644	130.427515489879	0.046137234721396
0	2644	130.516530274	0.046137234721396
0	2646	130.527515489879	0.046137234721396
0	2648	130.627515489879	0.046137234721396
0	2650	130.727515489879	0.046137234721396
0	2652	130.827515489879	0.046137234721396
0	2654	130.927515489879	0.046137234721396
0	2654	131.005038091	0.046137234721396
0	2656	131.027515489879	0.046137234721396
0	2658	131.127515489879	0.045675862374182
0	2658	131.127515489879	0.045675862374182
0	2660	131.227515489879	0.045675862374182
0	2662	131.327515489879	0.045675862374182
0	2664	131.427515489879	0.045675862374182
0	2664	131.525450056	0.045675862374182
0	2666	131.527515489879	0.045675862374182
0	2668	131.627515489879	0.045675862374182
0	2670	131.727515489879	0.045675862374182
0	2672	131.827515489879	0.045675862374182
0	2674	131.927515489879	0.045675862374182
0	2674	131.959846618	0.045675862374182
0	2676	132.027515489879	0.045675862374182
0	2678	132.127515489879	0.045675862374182
0	2680	132.227515489879	0.045675862374182
0	2680	132.238755556	0.045675862374182
0	2682	132.327515489879	0.045675862374182
0	2684	132.427515489879	0.045675862374182
0	2686	132.527515489879	0.04521910375044
0	2686	132.527515489879	0.04521910375044
0	2688	132.627515489879	0.04521910375044
0	2690	132.727515489879	0.04521910375044
0	2690	132.795570988	0.04521910375044
0	2692	132.827515489879	0.04521910375044
0	2694	132.927515489879	0.04521910375044
0	2696	133.027515489879	0.04521910375044
0	2698	133.127515489879	0.04521910375044
0	2700	133.227515489879	0.04521910375044
0	2700	133.30342789	0.04521910375044
0	2702	133.327515489879	0.04521910375044
0	2704	133.427515489879	0.04521910375044
0	2706	133.527515489879	0.04521910375044
0	2707	133.535884007075	0.04521910375044
0	2709	133.635884007075	0.04521910375044
0	2711	133.735884007075	0.04521910375044
0	2713	133.835884007075	0.04521910375044
0	2713	133.839142093	0.04521910375044
0	2715	133.935884007075	0.04521910375044
0	2717	134.035884007075	0.04521910375044
0	2719	134.135884007075	0.04521910375044
0	2721	134.235884007075	0.04521910375044
0	2723	134.335884007075	0.04521910375044
0	2725	134.435884007075	0.04521910375044
0	2725	134.507296075	0.04521910375044
0	2727	134.535884007075	0.04521910375044
0	2729	134.635884007075	0.04521910375044
0	2731	134.735884007075	0.04521910375044
0	2733	134.835884007075	0.04521910375044
0	2735	134.935884007075	0.04521910375044
0	2737	135.035884007075	0.04521910375044
0	2737	135.1064755	0.04521910375044
0	2739	135.135884007075	0.04521910375044
0	2741	135.235884007075	0.04521910375044
0	2743	135.335884007075	0.04521910375044
0	2745	135.435884007075	0.04521910375044
0	2747	135.535884007075	0.04521910375044
0	2749	135.635884007075	0.04521910375044
0	2751	135.735884007075	0.04521910375044
0	2751	135.787396519	0.04521910375044
0	2753	135.835884007075	0.04521910375044
0	2755	135.935884007075	0.04521910375044
0	2757	136.035884007075	0.04521910375044
0	2759	136.135884007075	0.04521910375044
0	2759	136.21246465	0.04521910375044
0	2761	136.235884007075	0.04521910375044
0	2763	136.335884007075	0.04521910375044
0	2765	136.435884007075	0.04521910375044
0	2767	136.535884007075	0.04521910375044
0	2769	136.635884007075	0.04521910375044
0	2769	136.711121761	0.04521910375044
0	2771	136.735884007075	0.04521910375044
0	2773	136.835884007075	0.04521910375044
0	2775	136.935884007075	0.04521910375044
0	2777	137.035884007075	0.04521910375044
0	2779	137.135884007075	0.04521910375044
0	2780	137.1763645959	0.04521910375044
0	2780	137.213605228	0.04536806627884
0	2782	137.235884007075	0.04545718139514
0	2783	137.24658865829	0.0455
0	2785	137.335884007075	0.04585718139514
0	2786	137.37158865829	0.046
0	2788	137.435884007075	0.04625718139514
0	2789	137.49658865829	0.0465
0	2791	137.535884007075	0.04665718139514
0	2792	137.62158865829	0.047
0	2794	137.635884007075	0.04705718139514
0	2794	137.665958902	0.04717748097484
0	2796	137.735884007075	0.04745718139514
0	2797	137.74658865829	0.0475
0	2799	137.835884007075	0.04785718139514
0	2800	137.87158865829	0.048
0	2802	137.935884007075	0.047774609581189
0	2802	137.935884007075	0.047774609581189
0	2802	137.937462907	0.047780925180889
0	2803	137.99658865829	0.0485
0	2805	138.035884007075	0.04865718139514
0	2806	138.12158865829	0.049
0	2808	138.135884007075	0.04905718139514
0	2810	138.235884007075	0.04945718139514
0	2811	138.24658865829	0.0495
0	2813	138.335884007075	0.04985718139514
0	2814	138.37158865829	0.05
0	2814	138.423382495	0.05
0	2816	138.435884007075	0.05
0	2818	138.535884007075	0.05
0	2820	138.635884007075	0.05
0	2822	138.735884007075	0.05
0	2824	138.835884007075	0.05
0	2825	138.928436035	0.05
0	2826	138.935884007075	0.05
0	2828	139.035884007075	0.05
0	2830	139.135884007075	0.0495
0	2830	139.135884007075	0.0495
0	2832	139.235884007075	0.0499
0	2834	139.335884007075	0.05
0	2834	139.378517746	0.05
0	2836	139.435884007075	0.05
0	2838	139.535884007075	0.05
0	2840	139.635884007075	0.05
0	2842	139.735884007075	0.05
0	2842	139.811375581	0.05
0	2844	139.835884007075	0.05
0	2846	139.935884007075	0.05
0	2847	139.93766170428	0.05
0	2849	140.03766170428	0.05
0	2851	140.13766170428	0.05
0	2853	140.23766170428	0.05
0	2855	140.33766170428	0.05
0	2855	140.368824256	0.05
0	2857	140.43766170428	0.05
0	2859	140.53766170428	0.05
0	2861	140.63766170428	0.05
0	2861	140.6513539	0.05
0	2863	140.73766170428	0.05
0	2865	140.83766170428	0.05
0	2867	140.93766170428	0.05
0	2869	141.03766170428	0.05
0	2869	141.10654285	0.05
0	2871	141.13766170428	0.05
0	2873	141.23766170428	0.05
0	2875	141.33766170428	0.05
0	2875	141.401383384	0.05
0	2877	141.43766170428	0.05
0	2879	141.53766170428	0.05
0	2881	141.63766170428	0.05
0	2883	141.73766170428	0.05
0	2885	141.83766170428	0.05
0	2887	141.93766170428	0.05
0	2887	141.958764958	0.05
0	2889	142.03766170428	0.05
0	2891	142.13766170428	0.05
0	2893	142.23766170428	0.05
0	2895	142.33766170428	0.05
0	2897	142.43766170428	0.05
0	2898	142.5350044	0.05
0	2899	142.53766170428	0.05
0	2901	142.63766170428	0.05
0	2903	142.73766170428	0.05
0	2905	142.83766170428	0.05
0	2907	142.93766170428	0.05
0	2907	142.978024564	0.05
0	2909	143.03766170428	0.05
0	2911	143.13766170428	0.05
0	2913	143.23766170428	0.05
0	2915	143.33766170428	0.05
0	2917	143.43766170428	0.05
0	2919	143.53766170428	0.05
0	2919	143.552695435	0.05
0	2921	143.63766170428	0.05
0	2923	143.73766170428	0.05
0	2925	143.83766170428	0.05
0	2927	143.93766170428	0.05
0	2929	144.03766170428	0.05
0	2929	144.058787956	0.05
0	2931	144.13766170428	0.05
0	2935	144.23766170428	0.05
0	2938	144.33766170428	0.05
0	2939	144.361849101881	0.05
0	2941	144.43766170428	0.05
0	2944	144.53766170428	0.0495
0	2944	144.53766170428	0.0495
0	2947	144.63766170428	0.0495
0	2947	144.661870366	0.0495
0	2950	144.73766170428	0.0495
0	2953	144.83766170428	0.0495
0	2955	144.93766170428	0.0495
0	2958	145.03766170428	0.0495
0	2961	145.13766170428	0.0495
0	2961	145.153344958	0.0495
0	2964	145.23766170428	0.0495
0	2967	145.33766170428	0.0495
0	2969	145.43766170428	0.0495
0	2972	145.53766170428	0.0495
0	2975	145.63766170428	0.0495
0	2978	145.73766170428	0.0495
0	2981	145.83766170428	0.0495
0	2981	145.838571475	0.0495
0	2983	145.93766170428	0.0495
0	2986	146.03766170428	0.0495
0	2989	146.13766170428	0.0495
0	2992	146.23766170428	0.0495
0	2995	146.33766170428	0.0495
0	2995	146.366259463	0.0495
0	2997	146.43766170428	0.0495
0	3000	146.53766170428	0.0495
0	3003	146.63766170428	0.0495
0	3005	146.73766170428	0.0495
0	3007	146.83766170428	0.0495
0	3009	146.93766170428	0.0495
0	3011	147.03766170428	0.0495
0	3011	147.109580872	0.0495
0	3013	147.13766170428	0.0495
0	3015	147.23766170428	0.0495
0	3017	147.33766170428	0.0495
0	3019	147.43766170428	0.0495
0	3021	147.53766170428	0.0495
0	3023	147.63766170428	0.0495
0	3025	147.73766170428	0.0495
0	3027	147.83766170428	0.0495
0	3029	147.93766170428	0.0495
0	3029	147.979838806	0.0495
0	3031	148.03766170428	0.0495
0	3033	148.13766170428	0.0495
0	3035	148.23766170428	0.0495
0	3037	148.33766170428	0.0495
0	3039	148.43766170428	0.0495
0	3039	148.505348506	0.0495
0	3041	148.53766170428	0.0495
0	3043	148.63766170428	0.0495
0	3045	148.73766170428	0.0495
0	3047	148.83766170428	0.0495
0	3049	148.93766170428	0.0495
0	3049	148.971208531	0.0495
0	3051	149.03766170428	0.0495
0	3053	149.13766170428	0.0495
0	3054	149.19307728042	0.0495
0	3056	149.29307728042	0.0495
0	3057	149.383373086	0.0495
0	3058	149.39307728042	0.0495
0	3060	149.49307728042	0.0495
0	3062	149.59307728042	0.049005
0	3062	149.59307728042	0.049005
0	3063	149.662441309	0.049005
0	3064	149.69307728042	0.049005
0	3066	149.79307728042	0.049005
0	3068	149.89307728042	0.049005
0	3070	149.99307728042	0.049005
0	3072	150.09307728042	0.049005
0	3073	150.128021239	0.049005
0	3074	150.19307728042	0.049005
0	3076	150.29307728042	0.049005
0	3078	150.39307728042	0.049005
0	3078	150.406050469	0.049005
0	3080	150.49307728042	0.049005
0	3082	150.59307728042	0.049005
0	3084	150.69307728042	0.049005
0	3086	150.79307728042	0.049005
0	3088	150.89307728042	0.049005
0	3090	150.99307728042	0.04851495
0	3090	150.99307728042	0.04851495
0	3091	151.027776844	0.04851495
0	3092	151.09307728042	0.04851495
0	3094	151.19307728042	0.04851495
0	3096	151.29307728042	0.04851495
0	3098	151.39307728042	0.04851495
0	3100	151.49307728042	0.04851495
0	3100	151.495879633	0.04851495
0	3102	151.59307728042	0.04851495
0	3104	151.69307728042	0.04851495
0	3106	151.79307728042	0.04851495
0	3108	151.89307728042	0.04851495
0	3110	151.99307728042	0.04851495
0	3110	151.999111498	0.04851495
0	3112	152.09307728042	0.04851495
0	3114	152.19307728042	0.04851495
0	3116	152.29307728042	0.04851495
0	3118	152.39307728042	0.0480298005
0	3118	152.39307728042	0.0480298005
0	3120	152.49307728042	0.0480298005
0	3121	152.558172949	0.0480298005
0	3122	152.59307728042	0.0480298005
0	3124	152.69307728042	0.0480298005
0	3126	152.79307728042	0.0480298005
0	3128	152.89307728042	0.0480298005
0	3130	152.99307728042	0.0480298005
0	3130	152.994750241	0.0480298005
0	3132	153.09307728042	0.0480298005
0	3134	153.19307728042	0.0480298005
0	3136	153.29307728042	0.0480298005
0	3137	153.389336383	0.0480298005
0	3138	153.39307728042	0.0480298005
0	3140	153.49307728042	0.0480298005
0	3142	153.59307728042	0.0480298005
0	3144	153.69307728042	0.0480298005
0	3146	153.79307728042	0.047549502495
0	3146	153.79307728042	0.047549502495
0	3146	153.796322146	0.047549502495
0	3148	153.89307728042	0.047549502495
0	3150	153.99307728042	0.047549502495
0	3151	154.07841115	0.047549502495
0	3152	154.09307728042	0.047549502495
0	3154	154.19307728042	0.047549502495
0	3156	154.29307728042	0.047549502495
0	3158	154.39307728042	0.047549502495
0	3160	154.49307728042	0.047549502495
0	3161	154.532221906	0.047549502495
0	3162	154.59307728042	0.047549502495
0	3164	154.69307728042	0.047549502495
0	3166	154.79307728042	0.047549502495
0	3168	154.89307728042	0.047549502495
0	3170	154.99307728042	0.047549502495
0	3170	155.007530182	0.047549502495
0	3172	155.09307728042	0.04707400747005
0	3172	155.09307728042	0.04707400747005
0	3174	155.19307728042	0.04707400747005
0	3176	155.29307728042	0.04707400747005
0	3178	155.39307728042	0.04707400747005
0	3180	155.49307728042	0.04707400747005
0	3180	155.502053599	0.04707400747005
0	3182	155.59307728042	0.04707400747005
0	3184	155.69307728042	0.04707400747005
0	3186	155.79307728042	0.04707400747005
0	3188	155.89307728042	0.04707400747005
0	3190	155.99307728042	0.04707400747005
0	3192	156.09307728042	0.04707400747005
0	3194	156.19307728042	0.04707400747005
0	3195	156.226578628	0.04707400747005
0	3196	156.29307728042	0.04707400747005
0	3198	156.39307728042	0.04707400747005
0	3200	156.49307728042	0.04707400747005
0	3202	156.59307728042	0.04660326739535
0	3202	156.59307728042	0.04660326739535
0	3204	156.69307728042	0.04660326739535
0	3205	156.749551363	0.04660326739535
0	3206	156.79307728042	0.04660326739535
0	3208	156.89307728042	0.04660326739535
0	3210	156.99307728042	0.04660326739535
0	3212	157.09307728042	0.04660326739535
0	3214	157.19307728042	0.04660326739535
0	3216	157.29307728042	0.04660326739535
0	3218	157.364896214748	0.04660326739535
0	3218	157.392207523	0.04660326739535
0	3220	157.464896214748	0.04660326739535
0	3222	157.564896214748	0.04660326739535
0	3224	157.664896214748	0.04660326739535
0	3226	157.764896214748	0.04660326739535
0	3228	157.864896214748	0.04660326739535
0	3228	157.911621136	0.04660326739535
0	3230	157.964896214748	0.046137234721396
0	3230	157.964896214748	0.046137234721396
0	3232	158.064896214748	0.046137234721396
0	3234	158.164896214748	0.046137234721396
0	3236	158.264896214748	0.046137234721396
0	3238	158.364896214748	0.046137234721396
0	3238	158.370609331	0.046137234721396
0	3240	158.464896214748	0.046137234721396
0	3242	158.564896214748	0.046137234721396
0	3244	158.664896214748	0.046137234721396
0	3246	158.764896214748	0.046137234721396
0	3246	158.813062429	0.046137234721396
0	3248	158.864896214748	0.046137234721396
0	3250	158.964896214748	0.046137234721396
0	3252	159.064896214748	0.046137234721396
0	3254	159.164896214748	0.046137234721396
0	3255	159.232065298	0.046137234721396
0	3256	159.264896214748	0.046137234721396
0	3258	159.364896214748	0.045675862374182
0	3258	159.364896214748	0.045675862374182
0	3260	159.464896214748	0.045675862374182
0	3262	159.564896214748	0.045675862374182
0	3264	159.664896214748	0.045675862374182
0	3264	159.712386763	0.045675862374182
0	3266	159.764896214748	0.045675862374182
0	3268	159.864896214748	0.045675862374182
0	3270	159.964896214748	0.045675862374182
0	3272	160.064896214748	0.045675862374182
0	3274	160.164896214748	0.045675862374182
0	3275	160.222238614	0.045675862374182
0	3276	160.264896214748	0.045675862374182
0	3278	160.364896214748	0.045675862374182
0	3280	160.464896214748	0.045675862374182
0	3282	160.564896214748	0.045675862374182
0	3283	160.663283254	0.045675862374182
0	3284	160.664896214748	0.045675862374182
0	3286	160.764896214748	0.04521910375044
0	3286	160.764896214748	0.04521910375044
0	3288	160.864896214748	0.04521910375044
0	3289	160.957778689	0.04521910375044
0	3290	160.964896214748	0.04521910375044
0	3292	161.064896214748	0.04521910375044
0	3294	161.164896214748	0.04521910375044
0	3296	161.264896214748	0.04521910375044
0	3298	161.364896214748	0.04521910375044
0	3300	161.464896214748	0.04521910375044
0	3300	161.480057518	0.04521910375044
0	3302	161.564896214748	0.04521910375044
0	3304	161.664896214748	0.04521910375044
0	3306	161.764896214748	0.04521910375044
0	3308	161.864896214748	0.04521910375044
0	3308	161.916956116	0.04521910375044
0	3310	161.964896214748	0.04521910375044
0	3312	162.064896214748	0.04521910375044
0	3313	162.159173335	0.044766912712936
0	3313	162.159173335	0.044766912712936
0	3314	162.164896214748	0.044766912712936
0	3316	162.264896214748	0.044766912712936
0	3318	162.364896214748	0.044766912712936
0	3320	162.464896214748	0.044766912712936
0	3322	162.564896214748	0.044766912712936
0	3323	162.62769106	0.044766912712936
0	3324	162.664896214748	0.044766912712936
0	3326	162.764896214748	0.044766912712936
0	3328	162.864896214748	0.044766912712936
0	3330	162.964896214748	0.044766912712936
0	3332	163.064896214748	0.044766912712936
0	3332	163.11647665	0.044766912712936
0	3334	163.164896214748	0.044766912712936
0	3336	163.264896214748	0.044766912712936
0	3338	163.364896214748	0.044766912712936
0	3340	163.464896214748	0.044766912712936
0	3342	163.564896214748	0.044319243585806
0	3342	163.564896214748	0.044319243585806
0	3342	163.610693578	0.044319243585806
0	3344	163.664896214748	0.044319243585806
0	3345	163.686452503491	0.044319243585806
0	3347	163.786452503491	0.044319243585806
0	3349	163.886452503491	0.044319243585806
0	3351	163.986452503491	0.044319243585806
0	3353	164.086452503491	0.044319243585806
0	3353	164.117634805	0.044319243585806
0	3355	164.186452503491	0.044319243585806
0	3357	164.286452503491	0.044319243585806
0	3359	164.386452503491	0.044319243585806
0	3361	164.486452503491	0.044319243585806
0	3362	164.573062603	0.044319243585806
0	3363	164.586452503491	0.044319243585806
0	3365	164.686452503491	0.044319243585806
0	3367	164.786452503491	0.044319243585806
0	3369	164.886452503491	0.044319243585806
0	3371	164.986452503491	0.044319243585806
0	3372	165.075058555	0.044319243585806
0	3373	165.086452503491	0.044319243585806
0	3375	165.186452503491	0.044319243585806
0	3377	165.286452503491	0.044319243585806
0	3379	165.386452503491	0.044319243585806
0	3381	165.486452503491	0.044319243585806
0	3383	165.586452503491	0.044319243585806
0	3385	165.686452503491	0.044319243585806
0	3387	165.786452503491	0.044319243585806
0	3387	165.803356009	0.044319243585806
0	3389	165.886452503491	0.044319243585806
0	3391	165.986452503491	0.044319243585806
0	3393	166.086452503491	0.044319243585806
0	3395	166.186452503491	0.044319243585806
0	3397	166.286452503491	0.044319243585806
0	3399	166.386452503491	0.044319243585806
0	3399	166.401294343	0.043876051149948
0	3399	166.401294343	0.043876051149948
0	3401	166.486452503491	0.043876051149948
0	3403	166.586452503491	0.043876051149948
0	3405	166.686452503491	0.043876051149948
0	3407	166.786452503491	0.043876051149948
0	3409	166.886452503491	0.043876051149948
0	3411	166.986452503491	0.043876051149948
0	3412	167.043436807	0.043876051149948
0	3413	167.086452503491	0.043876051149948
0	3415	167.186452503491	0.043876051149948
0	3417	167.286452503491	0.043876051149948
0	3419	167.386452503491	0.043876051149948
0	3421	167.486452503491	0.043876051149948
0	3422	167.577005287	0.043876051149948
0	3423	167.586452503491	0.043876051149948
0	3425	167.686452503491	0.043876051149948
0	3427	167.786452503491	0.043876051149948
0	3429	167.886452503491	0.043876051149948
0	3431	167.986452503491	0.043876051149948
0	3432	167.988520191517	0.043876051149948
0	3434	168.042131074	0.043876051149948
0	3435	168.088520191517	0.043876051149948
0	3437	168.188520191517	0.043876051149948
0	3439	168.288520191517	0.043876051149948
0	3441	168.388520191517	0.043876051149948
0	3443	168.488520191517	0.043876051149948
0	3445	168.588520191517	0.043876051149948
0	3446	168.628738726	0.043876051149948
0	3447	168.688520191517	0.043876051149948
0	3449	168.788520191517	0.043876051149948
0	3451	168.888520191517	0.043876051149948
0	3451	168.907308145	0.043876051149948
0	3453	168.988520191517	0.043876051149948
0	3455	169.066973092376	0.043876051149948
0	3456	169.088520191517	0.043962239546512
0	3457	169.097960304889	0.04356
0	3457	169.097960304889	0.04356
0	3459	169.188520191517	0.043922239546512
0	3460	169.207960304889	0.044
0	3462	169.288520191517	0.044322239546512
0	3462	169.311843655	0.044415533400444
0	3464	169.332960304889	0.0445
0	3465	169.388520191517	0.044722239546512
0	3467	169.457960304889	0.045
0	3468	169.488520191517	0.045122239546512
0	3470	169.582960304889	0.0455
0	3471	169.588520191517	0.045522239546512
0	3471	169.609931101	0.045607883184444
0	3473	169.688520191517	0.045922239546512
0	3474	169.707960304889	0.046
0	3476	169.788520191517	0.046322239546512
0	3478	169.832960304889	0.0465
0	3479	169.888520191517	0.046722239546512
0	3481	169.957960304889	0.047
0	3482	169.988520191517	0.047122239546512
0	3484	170.082960304889	0.0475
0	3485	170.088520191517	0.047522239546512
0	3486	170.138988259	0.04724687069828
0	3486	170.138988259	0.04724687069828
0	3487	170.188520191517	0.047444998428348
0	3488	170.207960304889	0.048
0	3490	170.288520191517	0.048322239546512
0	3492	170.332960304889	0.0485
0	3493	170.388520191517	0.048722239546512
0	3495	170.457960304889	0.049
0	3496	170.488520191517	0.049122239546512
0	3498	170.582960304889	0.0495
0	3499	170.588520191517	0.049522239546512
0	3501	170.688520191517	0.049922239546512
0	3502	170.707960304889	0.05
0	3503	170.721189655	0.05
0	3504	170.788520191517	0.05
0	3506	170.888520191517	0.05
0	3508	170.988520191517	0.05
0	3510	171.088520191517	0.05
0	3512	171.188520191517	0.05
0	3514	171.288520191517	0.05
0	3515	171.337872133	0.05
0	3516	171.388520191517	0.05
0	3518	171.488520191517	0.05
0	3520	171.588520191517	0.05
0	3522	171.688520191517	0.05
0	3524	171.788520191517	0.05
0	3526	171.888520191517	0.05
0	3528	171.988520191517	0.05
0	3528	171.997598845	0.05
0	3530	172.088520191517	0.05
0	3532	172.188520191517	0.05
0	3534	172.288520191517	0.05
0	3536	172.388520191517	0.05
0	3537	172.479499516	0.05
0	3538	172.488520191517	0.05
0	3540	172.588520191517	0.05
0	3542	172.688520191517	0.05
0	3544	172.788520191517	0.05
0	3546	172.888520191517	0.05
0	3547	172.929450952	0.05
0	3548	172.988520191517	0.05
0	3550	173.088520191517	0.05
0	3552	173.188520191517	0.05
0	3554	173.288520191517	0.05
0	3556	173.388520191517	0.05
0	3558	173.488520191517	0.05
0	3558	173.512113853	0.05
0	3560	173.588520191517	0.05
0	3562	173.688520191517	0.05
0	3564	173.788520191517	0.05
0	3566	173.888520191517	0.05
0	3568	173.988520191517	0.05
0	3570	174.088520191517	0.05
0	3571	174.163047262	0.05
0	3572	174.188520191517	0.05
0	3574	174.288520191517	0.05
0	3576	174.388520191517	0.05
0	3578	174.488520191517	0.05
0	3580	174.588520191517	0.05
0	3582	174.688520191517	0.05
0	3583	174.736482025	0.05
0	3584	174.788520191517	0.05
0	3586	174.888520191517	0.05
0	3588	174.988520191517	0.05
0	3590	175.088520191517	0.05
0	3592	175.188520191517	0.05
0	3594	175.288520191517	0.05
0	3596	175.388520191517	0.05
0	3597	175.450314127	0.05
0	3598	175.488520191517	0.05
0	3600	175.588520191517	0.05
0	3602	175.688520191517	0.05
0	3604	175.788520191517	0.05
0	3606	175.888520191517	0.05
0	3608	175.988520191517	0.05
0	3610	176.088520191517	0.05
0	3612	176.188520191517	0.05
0	3613	176.231835847	0.05
0	3614	176.288520191517	0.05
0	3616	176.388520191517	0.05
0	3618	176.488520191517	0.05
0	3620	176.588520191517	0.05
0	3622	176.688520191517	0.05
0	3624	176.788520191517	0.05
0	3625	176.837916511	0.05
0	3626	176.888520191517	0.05
0	3628	176.988520191517	0.05
0	3630	177.088520191517	0.05
0	3632	177.188520191517	0.05
0	3633	177.274517623	0.05
0	3634	177.288520191517	0.05
0	3636	177.388520191517	0.05
0	3638	177.488520191517	0.05
0	3640	177.588520191517	0.05
0	3641	177.679887268	0.05
0	3642	177.688520191517	0.05
0	3644	177.788520191517	0.05
0	3646	177.888520191517	0.05
0	3648	177.988520191517	0.05
0	3650	178.088520191517	0.05
0	3652	178.188520191517	0.05
0	3652	178.203834004	0.05
0	3654	178.288520191517	0.05
0	3656	178.388520191517	0.05
0	3658	178.488520191517	0.05
0	3660	178.588520191517	0.05
0	3662	178.688520191517	0.05
0	3664	178.788520191517	0.05
0	3665	178.860456244	0.05
0	3666	178.888520191517	0.05
0	3668	178.988520191517	0.05
0	3670	179.088520191517	0.05
0	3672	179.188520191517	0.05
0	3674	179.288520191517	0.05
0	3675	179.374782706	0.05
0	3676	179.388520191517	0.05
0	3678	179.488520191517	0.05
0	3680	179.588520191517	0.05
0	3681	179.661720274	0.05
0	3682	179.688520191517	0.05
0	3684	179.788520191517	0.05
0	3686	179.888520191517	0.05
0	3688	179.988520191517	0.05
0	3690	180.088520191517	0.05
0	3690	180.112371736	0.05
0	3692	180.188520191517	0.05
0	3694	180.288520191517	0.05
0	3696	180.388520191517	0.05
0	3698	180.488520191517	0.05
0	3698	180.496252681	0.05
0	3700	180.588520191517	0.05
0	3702	180.688520191517	0.05
0	3703	180.748871425	0.05
0	3704	180.788520191517	0.05
0	3706	180.888520191517	0.05
0	3708	180.988520191517	0.05
0	3710	181.088520191517	0.05
0	3712	181.188520191517	0.05
0	3712	181.194339448	0.05
0	3714	181.288520191517	0.05
0	3716	181.388520191517	0.05
0	3717	181.452974029	0.05
0	3718	181.488520191517	0.05
0	3720	181.588520191517	0.05
0	3722	181.688520191517	0.05
0	3724	181.788520191517	0.05
0	3726	181.888520191517	0.05
0	3726	181.919150632	0.05
0	3728	181.988520191517	0.05
0	3730	182.088520191517	0.05
0	3732	182.188520191517	0.05
0	3734	182.288520191517	0.05
0	3736	182.388520191517	0.05
0	3738	182.488520191517	0.05
0	3738	182.495241388	0.05
0	3740	182.588520191517	0.05
0	3742	182.688520191517	0.05
0	3744	182.788520191517	0.05
0	3746	182.888520191517	0.05
0	3747	182.981112322	0.05
0	3748	182.988520191517	0.05
0	3750	183.088520191517	0.05
0	3752	183.188520191517	0.05
0	3754	183.288520191517	0.05
0	3756	183.388520191517	0.05
0	3756	183.391178944	0.05
0	3758	183.488520191517	0.05
0	3760	183.588520191517	0.05
0	3761	183.669521026	0.05
0	3762	183.688520191517	0.05
0	3764	183.788520191517	0.05
0	3765	183.884038597	0.05
0	3766	183.888520191517	0.05
0	3768	183.988520191517	0.05
0	3770	184.088520191517	0.05
0	3770	184.09821007	0.05
0	3772	184.188520191517	0.05
0	3774	184.288520191517	0.05
0	3776	184.388520191517	0.05
0	3778	184.488520191517	0.05
0	3780	184.588520191517	0.05
0	3780	184.598890312	0.05
0	3782	184.688520191517	0.05
0	3784	184.788520191517	0.05
0	3786	184.888520191517	0.05
0	3788	184.988520191517	0.05
0	3789	185.047678969	0.05
0	3790	185.088520191517	0.05
0	3792	185.188520191517	0.05
0	3794	185.288520191517	0.05
0	3795	185.335979152	0.05
1	0	0	0.004
1	461	23.08057828677	0
1	468	23.367909541983	0.004
1	1037	51.652378732094	0
1	1196	59.558306378151	0.004
1	1600	79.493268274026	0
1	1631	81.066630320594	0.004
1	1691	83.909081031095	0
1	2031	100.872069743155	0.004
1	2371	117.028810240277	0
1	2780	137.1763645959	0.004
1	2939	144.361849101881	0
1	3455	169.066973092376	0.004
2	0	0	0.05
2	0	0.1	0.05
2	2	0.149704603	0.05
2	4	0.2	0.05
2	6	0.3	0.05
2	8	0.4	0.05
2	10	0.5	0.05
2	10	0.566516944	0.05
2	12	0.6	0.05
2	14	0.7	0.05
2	16	0.8	0.05
2	18	0.9	0.05
2	20	1	0.05
2	22	1.1	0.05
2	22	1.162617742	0.05
2	24	1.2	0.05
2	26	1.3	0.0495
2	26	1.3	0.0495
2	26	1.369501135	0.04977800454
2	28	1.4	0.0499
2	30	1.5	0.05
2	32	1.6	0.05
2	32	1.635164215	0.05
2	34	1.7	0.05
2	36	1.8	0.05
2	38	1.9	0.05
2	40	2	0.05
2	42	2.1	0.05
2	42	2.114608129	0.05
2	44	2.2	0.05
2	46	2.3	0.05
2	48	2.4	0.05
2	50	2.5	0.05
2	50	2.519763898	0.05
2	52	2.6	0.0495
2	52	2.6	0.0495
2	54	2.7	0.0499
2	56	2.8	0.05
2	58	2.9	0.05
2	58	2.991383122	0.05
2	60	3	0.05
2	62	3.1	0.05
2	64	3.2	0.05
2	64	3.24948958	0.05
2	66	3.3	0.05
2	68	3.4	0.05
2	68	3.482566648	0.05
2	70	3.5	0.05
2	72	3.6	0.05
2	72	3.688361956	0.05
2	74	3.7	0.05
2	76	3.8	0.05
2	78	3.9	0.0495
2	78	3.9	0.0495
2	78	3.958478572	0.049733914288
2	80	4	0.0499
2	82	4.1	0.05
2	84	4.2	0.05
2	84	4.243283233	0.05
2	86	4.3	0.05
2	88	4.4	0.05
2	90	4.5	0.05
2	92	4.6	0.05
2	94	4.7	0.05
2	94	4.789454017	0.05
2	96	4.8	0.05
2	98	4.9	0.05
2	100	5	0.05
2	102	5.1	0.05
2	104	5.2	0.05
2	104	5.244129889	0.0495
2	104	5.244129889	0.0495
2	106	5.3	0.049723480444
2	108	5.4	0.05
2	110	5.5	0.05
2	110	5.507683741	0.05
2	112	5.6	0.05
2	114	5.7	0.05
2	116	5.8	0.05
2	118	5.9	0.05
2	120	6	0.05
2	120	6.04099309	0.05
2	122	6.1	0.05
2	124	6.2	0.05
2	126	6.3	0.05
2	128	6.4	0.05
2	130	6.5	0.05
2	130	6.502072267	0.05
2	132	6.6	0.0495
2	132	6.6	0.0495
2	134	6.7	0.0499
2	136	6.8	0.05
2	138	6.9	0.05
2	138	6.991758406	0.05
2	140	7	0.05
2	142	7.1	0.05
2	144	7.2	0.05
2	144	7.266592144	0.05
2	146	7.3	0.05
2	148	7.4	0.05
2	150	7.5	0.05
2	150	7.550657308	0.05
2	152	7.6	0.05
2	154	7.7	0.05
2	156	7.8	0.05
2	158	7.9	0.05
2	158	7.959902104	0.0495
2	158	7.959902104	0.0495
2	160	8	0.049660391584
2	162	8.1	0.05
2	164	8.2	0.05
2	166	8.3	0.05
2	168	8.4	0.05
2	168	8.405005183	0.05
2	170	8.5	0.05
2	172	8.6	0.05
2	174	8.7	0.05
2	176	8.8	0.05
2	178	8.9	0.05
2	180	9	0.05
2	180	9.025372855	0.05
2	182	9.1	0.05
2	184	9.2	0.05
2	186	9.3	0.05
2	188	9.4	0.0495
2	188	9.4	0.0495
2	190	9.5	0.0499
2	192	9.6	0.05
2	192	9.612562159	0.05
2	194	9.7	0.05
2	196	9.8	0.05
2	198	9.9	0.05
2	200	10	0.05
2	202	10.1	0.05
2	202	10.136597608	0.05
2	204	10.2	0.05
2	206	10.3	0.05
2	208	10.4	0.05
2	210	10.5	0.05
2	212	10.6	0.05
2	212	10.609922392	0.05
2	214	10.7	0.05
2	216	10.8	0.0495
2	216	10.8	0.0495
2	216	10.898152699	0.049892610796
2	218	10.9	0.0499
2	220	11	0.05
2	222	11.1	0.05
2	224	11.2	0.05
2	226	11.3	0.05
2	226	11.355068299	0.05
2	228	11.4	0.05
2	230	11.5	0.05
2	232	11.6	0.05
2	234	11.7	0.05
2	236	11.8	0.05
2	238	11.9	0.05
2	238	11.904293053	0.05
2	240	12	0.05
2	242	12.1	0.05
2	244	12.2	0.0495
2	244	12.2	0.0495
2	246	12.3	0.0499
2	248	12.4	0.05
2	250	12.5	0.05
2	250	12.533256946	0.05
2	252	12.6	0.05
2	254	12.7	0.05
2	256	12.8	0.05
2	258	12.9	0.05
2	260	13	0.05
2	260	13.032595696	0.05
2	262	13.1	0.05
2	264	13.2	0.05
2	266	13.3	0.05
2	268	13.4	0.05
2	270	13.5	0.05
2	272	13.6	0.05
2	274	13.7	0.0495
2	274	13.7	0.0495
2	274	13.710906871	0.049543627484
2	276	13.8	0.0499
2	278	13.9	0.05
2	280	14	0.05
2	280	14.008011634	0.05
2	282	14.1	0.05
2	284	14.2	0.05
2	286	14.3	0.05
2	288	14.4	0.05
2	290	14.5	0.05
2	290	14.574633466	0.05
2	292	14.6	0.05
2	294	14.7	0.05
2	296	14.8	0.05
2	298	14.9	0.05
2	300	15	0.05
2	300	15.058923235	0.0495
2	300	15.058923235	0.0495
2	302	15.1	0.04966430706
2	304	15.2	0.05
2	306	15.3	0.05
2	308	15.4	0.05
2	310	15.5	0.05
2	310	15.52097266	0.05
2	312	15.6	0.05
2	314	15.7	0.05
2	316	15.8	0.05
2	318	15.9	0.05
2	320	16	0.05
2	320	16.009985593	0.05
2	322	16.1	0.05
2	324	16.2	0.05
2	326	16.3	0.05
2	328	16.4	0.05
2	328	16.486426321	0.0495
2	328	16.486426321	0.0495
2	330	16.5	0.049554294716
2	332	16.6	0.049954294716
2	334	16.7	0.05
2	336	16.8	0.05
2	338	16.9	0.05
2	340	17	0.05
2	342	17.1	0.05
2	342	17.11277947	0.05
2	344	17.2	0.05
2	346	17.3	0.05
2	348	17.4	0.05
2	350	17.5	0.05
2	352	17.6	0.05
2	352	17.625838711	0.05
2	354	17.7	0.05
2	356	17.8	0.05
2	356	17.857280827	0.0495
2	356	17.857280827	0.0495
2	358	17.9	0.049670876692
2	360	18	0.05
2	362	18.1	0.05
2	362	18.118808053	0.05
2	364	18.2	0.05
2	366	18.3	0.05
2	366	18.354804592	0.05
2	368	18.4	0.05
2	370	18.5	0.05
2	372	18.6	0.05
2	374	18.7	0.05
2	374	18.737516872	0.05
2	376	18.8	0.05
2	378	18.9	0.05
2	380	19	0.05
2	380	19.024565938	0.05
2	382	19.1	0.0495
2	382	19.1	0.0495
2	384	19.2	0.0499
2	386	19.3	0.05
2	388	19.4	0.05
2	388	19.483430794	0.05
2	390	19.5	0.05
2	392	19.6	0.05
2	394	19.7	0.05
2	396	19.8	0.05
2	396	19.891747504	0.05
2	398	19.9	0.05
2	400	20	0.05
2	402	20.1	0.05
2	404	20.2	0.05
2	406	20.3	0.05
2	406	20.319816049	0.05
2	408	20.4	0.05
2	410	20.5	0.0495
2	410	20.5	0.0495
2	412	20.6	0.0499
2	414	20.7	0.05
2	414	20.793696298	0.05
2	416	20.8	0.05
2	418	20.9	0.05
2	420	21	0.05
2	422	21.1	0.05
2	424	21.2	0.05
2	424	21.270909613	0.05
2	426	21.3	0.05
2	428	21.4	0.05
2	430	21.5	0.05
2	432	21.6	0.05
2	432	21.691614778	0.05
2	434	21.7	0.05
2	436	21.8	0.05
2	438	21.9	0.0495
2	438	21.9	0.0495
2	440	22	0.0499
2	442	22.1	0.05
2	442	22.127291557	0.05
2	444	22.2	0.05
2	446	22.3	0.05
2	448	22.4	0.05
2	450	22.5	0.05
2	450	22.563798385	0.05
2	452	22.6	0.05
2	454	22.7	0.05
2	456	22.8	0.05
2	456	22.84777357	0.05
2	458	22.9	0.05
2	460	23	0.05
2	463	23.1	0.05
2	465	23.2	0.05
2	467	23.3	0.05
2	467	23.333217241	0.05
2	470	23.4	0.05
2	473	23.5	0.05
2	475	23.6	0.05
2	477	23.7	0.05
2	477	23.712236497	0.05
2	479	23.8	0.05
2	481	23.9	0.05
2	481	23.953167592	0.05
2	483	24	0.05
2	485	24.1	0.05
2	487	24.2	0.05
2	487	24.251432701	0.05
2	489	24.3	0.05
2	491	24.4	0.05
2	493	24.5	0.05
2	493	24.551753017	0.05
2	495	24.6	0.05
2	497	24.7	0.05
2	499	24.8	0.05
2	501	24.9	0.05
2	503	25	0.05
2	503	25.012381528	0.05
2	505	25.1	0.05
2	507	25.2	0.05
2	509	25.3	0.05
2	511	25.4	0.05
2	513	25.5	0.05
2	513	25.552567804	0.05
2	515	25.6	0.05
2	517	25.7	0.05
2	519	25.8	0.05
2	519	25.807645822	0.05
2	521	25.9	0.05
2	523	26	0.05
2	525	26.1	0.05
2	527	26.2	0.05
2	529	26.3	0.05
2	529	26.316259165	0.05
2	531	26.4	0.05
2	533	26.5	0.05
2	535	26.6	0.05
2	537	26.7	0.05
2	539	26.8	0.05
2	539	26.85466834	0.05
2	541	26.9	0.05
2	543	27	0.05
2	545	27.1	0.05
2	547	27.2	0.05
2	547	27.25764532	0.05
2	549	27.3	0.05
2	551	27.4	0.05
2	553	27.5	0.05
2	555	27.6	0.05
2	555	27.658843924	0.05
2	557	27.7	0.05
2	559	27.8	0.05
2	561	27.9	0.05
2	563	28	0.05
2	565	28.1	0.05
2	565	28.184621599	0.05
2	567	28.2	0.05
2	569	28.3	0.05
2	571	28.4	0.05
2	573	28.5	0.05
2	575	28.6	0.05
2	575	28.612995397	0.05
2	577	28.7	0.05
2	579	28.8	0.05
2	581	28.9	0.05
2	583	29	0.05
2	583	29.075166637	0.05
2	585	29.1	0.05
2	587	29.2	0.05
2	589	29.3	0.05
2	591	29.4	0.05
2	593	29.5	0.05
2	595	29.6	0.05
2	595	29.620838299	0.05
2	597	29.7	0.05
2	599	29.8	0.05
2	601	29.9	0.05
2	603	30	0.05
2	605	30.1	0.05
2	607	30.2	0.05
2	607	30.26455804	0.05
2	609	30.3	0.05
2	611	30.4	0.05
2	613	30.5	0.05
2	615	30.6	0.05
2	617	30.7	0.05
2	619	30.8	0.05
2	619	30.85039969	0.05
2	621	30.9	0.05
2	623	31	0.05
2	625	31.1	0.05
2	627	31.2	0.05
2	629	31.3	0.05
2	629	31.326347068	0.05
2	631	31.4	0.05
2	633	31.5	0.05
2	635	31.6	0.05
2	637	31.7	0.05
2	639	31.8	0.05
2	639	31.833543961	0.05
2	641	31.9	0.05
2	643	32	0.05
2	645	32.1	0.05
2	647	32.2	0.05
2	647	32.234199139	0.05
2	649	32.3	0.05
2	651	32.4	0.05
2	653	32.5	0.05
2	655	32.6	0.05
2	655	32.691371437	0.05
2	657	32.7	0.05
2	659	32.8	0.05
2	661	32.9	0.05
2	663	33	0.05
2	663	33.067533772	0.05
2	665	33.1	0.05
2	667	33.2	0.05
2	669	33.3	0.05
2	669	33.341005477	0.05
2	671	33.4	0.05
2	673	33.5	0.05
2	675	33.6	0.05
2	677	33.7	0.05
2	679	33.8	0.05
2	679	33.824483947	0.05
2	681	33.9	0.05
2	683	34	0.05
2	685	34.1	0.05
2	687	34.2	0.05
2	687	34.276535623	0.05
2	689	34.3	0.05
[...]
2	2772	136.82652279473	0.041725688072504
2	2772	136.82652279473	0.041725688072504
2	2774	136.92652279473	0.041725688072504
2	2776	137.02652279473	0.041725688072504
2	2778	137.12652279473	0.041725688072504
2	2780	137.213605228	0.041725688072504
2	2781	137.22652279473	0.041725688072504
2	2784	137.32652279473	0.041725688072504
2	2787	137.42652279473	0.041725688072504
2	2790	137.52652279473	0.041725688072504
2	2793	137.62652279473	0.041725688072504
2	2794	137.665958902	0.041725688072504
2	2795	137.72652279473	0.041725688072504
2	2798	137.82652279473	0.041725688072504
2	2801	137.92652279473	0.041725688072504
2	2802	137.937462907	0.041725688072504
2	2804	138.02652279473	0.041725688072504
2	2807	138.12652279473	0.041725688072504
2	2809	138.22652279473	0.041725688072504
2	2812	138.32652279473	0.041725688072504
2	2814	138.423382495	0.041725688072504
2	2815	138.42652279473	0.041725688072504
2	2817	138.52652279473	0.041725688072504
2	2819	138.62652279473	0.041725688072504
2	2821	138.72652279473	0.041725688072504
2	2823	138.82652279473	0.041725688072504
2	2825	138.92652279473	0.041725688072504
2	2825	138.928436035	0.041725688072504
2	2827	139.02652279473	0.041725688072504
2	2829	139.12652279473	0.041725688072504
2	2831	139.22652279473	0.041725688072504
2	2833	139.32652279473	0.041725688072504
2	2834	139.378517746	0.041725688072504
2	2835	139.42652279473	0.041725688072504
2	2837	139.52652279473	0.041725688072504
2	2839	139.62652279473	0.041725688072504
2	2841	139.72652279473	0.041725688072504
2	2842	139.811375581	0.041725688072504
2	2843	139.82652279473	0.041725688072504
2	2845	139.92652279473	0.041725688072504
2	2848	140.02652279473	0.041725688072504
2	2850	140.12652279473	0.041725688072504
2	2852	140.22652279473	0.041725688072504
2	2854	140.32652279473	0.041725688072504
2	2855	140.368824256	0.041725688072504
2	2856	140.42652279473	0.041725688072504
2	2858	140.52652279473	0.041308431191779
2	2858	140.52652279473	0.041308431191779
2	2860	140.62652279473	0.041308431191779
2	2861	140.6513539	0.041308431191779
2	2862	140.72652279473	0.041308431191779
2	2864	140.82652279473	0.041308431191779
2	2866	140.92652279473	0.041308431191779
2	2868	141.02652279473	0.041308431191779
2	2869	141.10654285	0.041308431191779
2	2870	141.12652279473	0.041308431191779
2	2872	141.22652279473	0.041308431191779
2	2874	141.32652279473	0.041308431191779
2	2875	141.401383384	0.041308431191779
2	2876	141.42652279473	0.041308431191779
2	2878	141.52652279473	0.041308431191779
2	2880	141.62652279473	0.041308431191779
2	2882	141.72652279473	0.041308431191779
2	2884	141.82652279473	0.041308431191779
2	2886	141.92652279473	0.040895346879862
2	2886	141.92652279473	0.040895346879862
2	2887	141.958764958	0.040895346879862
2	2888	142.02652279473	0.040895346879862
2	2890	142.12652279473	0.040895346879862
2	2892	142.22652279473	0.040895346879862
2	2894	142.32652279473	0.040895346879862
2	2896	142.42652279473	0.040895346879862
2	2898	142.52652279473	0.040895346879862
2	2898	142.5350044	0.040895346879862
2	2900	142.62652279473	0.040895346879862
2	2902	142.72652279473	0.040895346879862
2	2904	142.82652279473	0.040895346879862
2	2906	142.92652279473	0.040895346879862
2	2907	142.978024564	0.040895346879862
2	2908	143.02652279473	0.040895346879862
2	2910	143.12652279473	0.040895346879862
2	2912	143.22652279473	0.040895346879862
2	2914	143.32652279473	0.040486393411063
2	2914	143.32652279473	0.040486393411063
2	2916	143.42652279473	0.040486393411063
2	2918	143.52652279473	0.040486393411063
2	2919	143.552695435	0.040486393411063
2	2920	143.62652279473	0.040486393411063
2	2922	143.72652279473	0.040486393411063
2	2924	143.82652279473	0.040486393411063
2	2926	143.92652279473	0.040486393411063
2	2928	144.02652279473	0.040486393411063
2	2929	144.058787956	0.040486393411063
2	2930	144.12652279473	0.040486393411063
2	2932	144.190219424313	0.040486393411063
2	2933	144.193621071547	0.0405
2	2934	144.22652279473	0.040631606892732
2	2936	144.318621071547	0.041
2	2937	144.32652279473	0.041031606892732
2	2940	144.42652279473	0.041431606892732
2	2942	144.443621071547	0.0415
2	2943	144.52652279473	0.041831606892732
2	2945	144.568621071547	0.042
2	2946	144.62652279473	0.042231606892732
2	2947	144.661870366	0.042372997177812
2	2948	144.693621071547	0.0425
2	2949	144.72652279473	0.042631606892732
2	2951	144.818621071547	0.043
2	2952	144.82652279473	0.043031606892732
2	2954	144.92652279473	0.043431606892732
2	2956	144.943621071547	0.0435
2	2957	145.02652279473	0.043831606892732
2	2959	145.068621071547	0.044
2	2960	145.12652279473	0.044231606892732
2	2961	145.153344958	0.044338895545812
2	2962	145.193621071547	0.0445
2	2963	145.22652279473	0.044631606892732
2	2965	145.318621071547	0.045
2	2966	145.32652279473	0.045031606892732
2	2968	145.42652279473	0.045431606892732
2	2970	145.443621071547	0.0455
2	2971	145.52652279473	0.045831606892732
2	2973	145.568621071547	0.046
2	2974	145.62652279473	0.045769290823805
2	2974	145.62652279473	0.045769290823805
2	2976	145.693621071547	0.0465
2	2977	145.72652279473	0.046631606892732
2	2979	145.818621071547	0.047
2	2980	145.82652279473	0.047031606892732
2	2981	145.838571475	0.047079801613812
2	2982	145.92652279473	0.047431606892732
2	2984	145.943621071547	0.0475
2	2985	146.02652279473	0.047831606892732
2	2987	146.068621071547	0.048
2	2988	146.12652279473	0.048231606892732
2	2990	146.193621071547	0.0485
2	2991	146.22652279473	0.048631606892732
2	2993	146.318621071547	0.049
2	2994	146.32652279473	0.049031606892732
2	2995	146.366259463	0.049190553565812
2	2996	146.42652279473	0.049431606892732
2	2998	146.443621071547	0.0495
2	2999	146.52652279473	0.049831606892732
2	3001	146.568621071547	0.05
2	3002	146.62652279473	0.05
2	3004	146.72652279473	0.0495
2	3004	146.72652279473	0.0495
2	3006	146.82652279473	0.0499
2	3008	146.92652279473	0.05
2	3010	147.02652279473	0.05
2	3011	147.109580872	0.05
2	3012	147.12652279473	0.05
2	3014	147.22652279473	0.05
2	3016	147.32652279473	0.05
2	3018	147.42652279473	0.05
2	3020	147.52652279473	0.05
2	3022	147.62652279473	0.05
2	3024	147.72652279473	0.05
2	3026	147.82652279473	0.05
2	3028	147.92652279473	0.05
2	3029	147.979838806	0.05
2	3030	148.02652279473	0.05
2	3032	148.12652279473	0.05
2	3034	148.22652279473	0.0495
2	3034	148.22652279473	0.0495
2	3036	148.32652279473	0.0499
2	3038	148.42652279473	0.05
2	3039	148.505348506	0.05
2	3040	148.52652279473	0.05
2	3042	148.62652279473	0.05
2	3044	148.72652279473	0.05
2	3046	148.82652279473	0.05
2	3048	148.92652279473	0.05
2	3049	148.971208531	0.05
2	3050	149.02652279473	0.05
2	3052	149.12652279473	0.05
2	3055	149.22652279473	0.05
2	3057	149.32652279473	0.05
2	3057	149.383373086	0.05
2	3059	149.42652279473	0.05
2	3061	149.52652279473	0.05
2	3063	149.62652279473	0.05
2	3063	149.662441309	0.05
2	3065	149.72652279473	0.05
2	3067	149.82652279473	0.05
2	3069	149.92652279473	0.05
2	3071	150.02652279473	0.05
2	3073	150.12652279473	0.05
2	3073	150.128021239	0.05
2	3075	150.22652279473	0.05
2	3077	150.32652279473	0.05
2	3078	150.406050469	0.05
2	3079	150.42652279473	0.05
2	3081	150.52652279473	0.05
2	3083	150.62652279473	0.05
2	3085	150.72652279473	0.05
2	3087	150.82652279473	0.05
2	3089	150.92652279473	0.05
2	3091	151.02652279473	0.05
2	3091	151.027776844	0.05
2	3093	151.12652279473	0.05
2	3095	151.22652279473	0.05
2	3097	151.32652279473	0.05
2	3099	151.42652279473	0.05
2	3100	151.495879633	0.05
2	3101	151.52652279473	0.05
2	3103	151.62652279473	0.05
2	3105	151.72652279473	0.05
2	3107	151.82652279473	0.05
2	3109	151.92652279473	0.05
2	3110	151.999111498	0.05
2	3111	152.02652279473	0.05
2	3113	152.12652279473	0.05
2	3115	152.22652279473	0.05
2	3117	152.32652279473	0.05
2	3119	152.42652279473	0.05
2	3121	152.52652279473	0.05
2	3121	152.558172949	0.05
2	3123	152.62652279473	0.05
2	3125	152.72652279473	0.05
2	3127	152.82652279473	0.05
2	3129	152.92652279473	0.05
2	3130	152.994750241	0.05
2	3131	153.02652279473	0.05
2	3133	153.12652279473	0.05
2	3135	153.22652279473	0.05
2	3137	153.32652279473	0.05
2	3137	153.389336383	0.05
2	3139	153.42652279473	0.05
2	3141	153.52652279473	0.05
2	3143	153.62652279473	0.05
2	3145	153.72652279473	0.05
2	3146	153.796322146	0.05
2	3147	153.82652279473	0.05
2	3149	153.92652279473	0.05
2	3151	154.02652279473	0.05
2	3151	154.07841115	0.05
2	3153	154.12652279473	0.05
2	3155	154.22652279473	0.05
2	3157	154.32652279473	0.05
2	3159	154.419596758434	0.05
2	3161	154.519596758434	0.05
2	3161	154.532221906	0.05
2	3163	154.619596758434	0.05
2	3165	154.719596758434	0.05
2	3167	154.819596758434	0.05
2	3169	154.919596758434	0.05
2	3170	155.007530182	0.05
2	3171	155.019596758434	0.05
2	3173	155.119596758434	0.05
2	3175	155.219596758434	0.05
2	3177	155.319596758434	0.05
2	3179	155.419596758434	0.05
2	3180	155.502053599	0.05
2	3181	155.519596758434	0.05
2	3183	155.619596758434	0.05
2	3185	155.719596758434	0.05
2	3187	155.819596758434	0.05
2	3189	155.919596758434	0.05
2	3191	156.019596758434	0.05
2	3193	156.119596758434	0.05
2	3195	156.219596758434	0.05
2	3195	156.226578628	0.05
2	3197	156.319596758434	0.05
2	3199	156.419596758434	0.05
2	3201	156.519596758434	0.05
2	3203	156.619596758434	0.05
2	3205	156.719596758434	0.05
2	3205	156.749551363	0.05
2	3207	156.819596758434	0.05
2	3209	156.919596758434	0.05
2	3211	157.019596758434	0.05
2	3213	157.119596758434	0.05
2	3215	157.219596758434	0.05
2	3217	157.319596758434	0.05
2	3218	157.392207523	0.05
2	3219	157.419596758434	0.05
2	3221	157.519596758434	0.05
2	3223	157.619596758434	0.05
2	3225	157.719596758434	0.05
2	3227	157.819596758434	0.05
2	3228	157.911621136	0.05
2	3229	157.919596758434	0.05
2	3231	158.019596758434	0.05
2	3233	158.119596758434	0.05
2	3235	158.219596758434	0.05
2	3237	158.319596758434	0.05
2	3238	158.370609331	0.05
2	3239	158.419596758434	0.05
2	3241	158.519596758434	0.05
2	3243	158.619596758434	0.05
2	3245	158.719596758434	0.05
2	3246	158.813062429	0.05
2	3247	158.819596758434	0.05
2	3249	158.919596758434	0.05
2	3251	159.019596758434	0.05
2	3253	159.119596758434	0.05
2	3255	159.219596758434	0.05
2	3255	159.232065298	0.05
2	3257	159.319596758434	0.05
2	3259	159.419596758434	0.05
2	3261	159.519596758434	0.05
2	3263	159.619596758434	0.05
2	3264	159.712386763	0.05
2	3265	159.719596758434	0.05
2	3267	159.819596758434	0.05
2	3269	159.919596758434	0.05
2	3271	160.019596758434	0.05
2	3273	160.119596758434	0.05
2	3275	160.219596758434	0.05
2	3275	160.222238614	0.05
2	3277	160.319596758434	0.05
2	3279	160.419596758434	0.05
2	3281	160.519596758434	0.05
2	3283	160.619596758434	0.05
2	3283	160.663283254	0.05
2	3285	160.719596758434	0.05
2	3287	160.819596758434	0.05
2	3289	160.919596758434	0.05
2	3289	160.957778689	0.05
2	3291	161.019596758434	0.05
2	3293	161.119596758434	0.05
2	3295	161.219596758434	0.05
2	3297	161.319596758434	0.05
2	3299	161.419596758434	0.05
2	3300	161.480057518	0.05
2	3301	161.519596758434	0.05
2	3303	161.619596758434	0.05
2	3305	161.719596758434	0.05
2	3307	161.819596758434	0.05
2	3308	161.916956116	0.05
2	3309	161.919596758434	0.05
2	3311	162.019596758434	0.05
2	3313	162.119596758434	0.05
2	3313	162.159173335	0.05
2	3315	162.219596758434	0.05
2	3317	162.319596758434	0.05
2	3319	162.419596758434	0.05
2	3321	162.519596758434	0.05
2	3323	162.619596758434	0.05
2	3323	162.62769106	0.05
2	3325	162.719596758434	0.05
2	3327	162.819596758434	0.05
2	3329	162.919596758434	0.05
2	3331	163.019596758434	0.05
2	3332	163.11647665	0.05
2	3333	163.119596758434	0.05
2	3335	163.219596758434	0.05
2	3337	163.319596758434	0.05
2	3339	163.419596758434	0.05
2	3341	163.519596758434	0.05
2	3342	163.610693578	0.05
2	3343	163.619596758434	0.05
2	3346	163.719596758434	0.05
2	3348	163.819596758434	0.05
2	3350	163.919596758434	0.05
2	3352	164.019596758434	0.05
2	3353	164.117634805	0.05
2	3354	164.119596758434	0.05
2	3356	164.219596758434	0.05
2	3358	164.319596758434	0.05
2	3360	164.419596758434	0.05
2	3362	164.519596758434	0.05
2	3362	164.573062603	0.05
2	3364	164.619596758434	0.05
2	3366	164.719596758434	0.05
2	3368	164.819596758434	0.05
2	3370	164.919596758434	0.0495
2	3370	164.919596758434	0.0495
2	3372	165.019596758434	0.0499
2	3372	165.075058555	0.05
2	3374	165.119596758434	0.05
2	3376	165.219596758434	0.05
2	3378	165.319596758434	0.05
2	3380	165.419596758434	0.05
2	3382	165.519596758434	0.05
2	3384	165.619596758434	0.05
2	3386	165.719596758434	0.05
2	3387	165.803356009	0.05
2	3388	165.819596758434	0.05
2	3390	165.919596758434	0.05
2	3392	166.019596758434	0.05
2	3394	166.119596758434	0.05
2	3396	166.219596758434	0.05
2	3398	166.319596758434	0.05
2	3399	166.401294343	0.05
2	3400	166.419596758434	0.05
2	3402	166.519596758434	0.05
2	3404	166.619596758434	0.05
2	3406	166.719596758434	0.05
2	3408	166.819596758434	0.05
2	3410	166.919596758434	0.05
2	3412	167.019596758434	0.05
2	3412	167.043436807	0.05
2	3414	167.119596758434	0.05
2	3416	167.219596758434	0.05
2	3418	167.319596758434	0.05
2	3420	167.419596758434	0.05
2	3422	167.519596758434	0.05
2	3422	167.577005287	0.05
2	3424	167.619596758434	0.05
2	3426	167.719596758434	0.05
2	3428	167.819596758434	0.0495
2	3428	167.819596758434	0.0495
2	3430	167.919596758434	0.0499
2	3434	168.019596758434	0.05
2	3434	168.042131074	0.05
2	3436	168.119596758434	0.05
2	3438	168.219596758434	0.05
2	3440	168.319596758434	0.05
2	3442	168.419596758434	0.05
2	3444	168.519596758434	0.05
2	3446	168.619596758434	0.05
2	3446	168.628738726	0.05
2	3448	168.719596758434	0.05
2	3450	168.819596758434	0.05
2	3451	168.907308145	0.05
2	3452	168.919596758434	0.05
2	3454	169.019596758434	0.05
2	3458	169.119596758434	0.05
2	3461	169.219596758434	0.05
2	3462	169.311843655	0.05
2	3463	169.319596758434	0.05
2	3466	169.419596758434	0.05
2	3469	169.519596758434	0.05
2	3471	169.609931101	0.05
2	3472	169.619596758434	0.05
2	3475	169.719596758434	0.05
2	3477	169.819596758434	0.05
2	3480	169.919596758434	0.05
2	3483	170.019596758434	0.05
2	3486	170.119596758434	0.05
2	3486	170.138988259	0.05
2	3489	170.219596758434	0.05
2	3491	170.319596758434	0.05
2	3494	170.419596758434	0.05
2	3497	170.519596758434	0.05
2	3500	170.619596758434	0.05
2	3503	170.719596758434	0.05
2	3503	170.721189655	0.05
2	3505	170.819596758434	0.05
2	3507	170.919596758434	0.05
2	3509	171.019596758434	0.05
2	3511	171.119596758434	0.05
2	3513	171.219596758434	0.05
2	3515	171.319596758434	0.05
2	3515	171.337872133	0.0495
2	3515	171.337872133	0.0495
2	3517	171.419596758434	0.049826898501736
2	3519	171.519596758434	0.05
2	3521	171.619596758434	0.05
2	3523	171.719596758434	0.05
2	3525	171.819596758434	0.05
2	3527	171.919596758434	0.05
2	3528	171.997598845	0.05
2	3529	172.019596758434	0.05
2	3531	172.119596758434	0.05
2	3533	172.219596758434	0.05
2	3535	172.319596758434	0.05
2	3537	172.419596758434	0.05
2	3537	172.479499516	0.05
2	3539	172.519596758434	0.05
2	3541	172.619596758434	0.05
2	3543	172.719596758434	0.05
2	3545	172.819596758434	0.0495
2	3545	172.819596758434	0.0495
2	3547	172.919596758434	0.0499
2	3547	172.929450952	0.049939416774264
2	3549	173.019596758434	0.05
2	3551	173.119596758434	0.05
2	3553	173.219596758434	0.05
2	3555	173.319596758434	0.05
2	3557	173.419596758434	0.05
2	3558	173.512113853	0.05
2	3559	173.519596758434	0.05
2	3561	173.619596758434	0.05
2	3563	173.719596758434	0.05
2	3565	173.819596758434	0.05
2	3567	173.919596758434	0.05
2	3569	174.019596758434	0.05
2	3571	174.119596758434	0.05
2	3571	174.163047262	0.05
2	3573	174.219596758434	0.0495
2	3573	174.219596758434	0.0495
2	3575	174.319596758434	0.0499
2	3577	174.419596758434	0.05
2	3579	174.519596758434	0.05
2	3581	174.619596758434	0.05
2	3583	174.719596758434	0.05
2	3583	174.736482025	0.05
2	3585	174.819596758434	0.05
2	3587	174.919596758434	0.05
2	3589	175.019596758434	0.05
2	3591	175.119596758434	0.05
2	3593	175.219596758434	0.05
2	3595	175.319596758434	0.05
2	3597	175.419596758434	0.05
2	3597	175.450314127	0.05
2	3599	175.519596758434	0.05
2	3601	175.619596758434	0.05
2	3603	175.719596758434	0.0495
2	3603	175.719596758434	0.0495
2	3605	175.819596758434	0.0499
2	3607	175.919596758434	0.05
2	3609	176.019596758434	0.05
2	3611	176.119596758434	0.05
2	3613	176.219596758434	0.05
2	3613	176.231835847	0.05
2	3615	176.319596758434	0.05
2	3617	176.419596758434	0.05
2	3619	176.519596758434	0.05
2	3621	176.619596758434	0.05
2	3623	176.719596758434	0.05
2	3625	176.819596758434	0.05
2	3625	176.837916511	0.05
2	3627	176.919596758434	0.05
2	3629	177.019596758434	0.05
2	3631	177.119596758434	0.05
2	3633	177.219596758434	0.0495
2	3633	177.219596758434	0.0495
2	3633	177.274517623	0.049719683458264
2	3635	177.319596758434	0.0499
2	3637	177.419596758434	0.05
2	3639	177.519596758434	0.05
2	3641	177.619596758434	0.05
2	3641	177.679887268	0.05
2	3643	177.719596758434	0.05
2	3645	177.819596758434	0.05
2	3647	177.919596758434	0.05
2	3649	178.019596758434	0.05
2	3651	178.119596758434	0.05
2	3652	178.203834004	0.05
2	3653	178.219596758434	0.05
2	3655	178.319596758434	0.05
2	3657	178.419596758434	0.05
2	3659	178.519596758434	0.05
2	3661	178.619596758434	0.0495
2	3661	178.619596758434	0.0495
2	3663	178.719596758434	0.0499
2	3665	178.819596758434	0.05
2	3665	178.860456244	0.05
2	3667	178.919596758434	0.05
2	3669	179.019596758434	0.05
2	3671	179.119596758434	0.05
2	3673	179.219596758434	0.05
2	3675	179.319596758434	0.05
2	3675	179.374782706	0.05
2	3677	179.419596758434	0.05
2	3679	179.519596758434	0.05
2	3681	179.619596758434	0.05
2	3681	179.661720274	0.05
2	3683	179.719596758434	0.05
2	3685	179.819596758434	0.05
2	3687	179.919596758434	0.05
2	3689	180.019596758434	0.0495
2	3689	180.019596758434	0.0495
2	3690	180.112371736	0.049871099910264
2	3691	180.119596758434	0.0499
2	3693	180.219596758434	0.05
2	3695	180.319596758434	0.05
2	3697	180.419596758434	0.05
2	3698	180.496252681	0.05
2	3699	180.519596758434	0.05
2	3701	180.619596758434	0.05
2	3703	180.719596758434	0.05
2	3703	180.748871425	0.05
2	3705	180.819596758434	0.05
2	3707	180.919596758434	0.05
2	3709	181.019596758434	0.05
2	3711	181.119596758434	0.05
2	3712	181.194339448	0.05
2	3713	181.219596758434	0.05
2	3715	181.319596758434	0.0495
2	3715	181.319596758434	0.0495
2	3717	181.419596758434	0.0499
2	3717	181.452974029	0.05
2	3719	181.519596758434	0.05
2	3721	181.619596758434	0.05
2	3723	181.719596758434	0.05
2	3725	181.819596758434	0.05
2	3726	181.919150632	0.05
2	3727	181.919596758434	0.05
2	3729	182.019596758434	0.05
2	3731	182.119596758434	0.05
2	3733	182.219596758434	0.05
2	3735	182.319596758434	0.05
2	3737	182.419596758434	0.05
2	3738	182.495241388	0.05
2	3739	182.519596758434	0.05
2	3741	182.619596758434	0.05
2	3743	182.719596758434	0.0495
2	3743	182.719596758434	0.0495
2	3745	182.819596758434	0.0499
2	3747	182.919596758434	0.05
2	3747	182.981112322	0.05
2	3749	183.019596758434	0.05
2	3751	183.119596758434	0.05
2	3753	183.219596758434	0.05
2	3755	183.319596758434	0.05
2	3756	183.391178944	0.05
2	3757	183.419596758434	0.05
2	3759	183.519596758434	0.05
2	3761	183.619596758434	0.05
2	3761	183.669521026	0.05
2	3763	183.719596758434	0.05
2	3765	183.819596758434	0.05
2	3765	183.884038597	0.05
2	3767	183.919596758434	0.05
2	3769	184.019596758434	0.0495
2	3769	184.019596758434	0.0495
2	3770	184.09821007	0.049814453246264
2	3771	184.119596758434	0.0499
2	3773	184.219596758434	0.05
2	3775	184.319596758434	0.05
2	3777	184.419596758434	0.05
2	3779	184.519596758434	0.05
2	3780	184.598890312	0.05
2	3781	184.619596758434	0.05
2	3783	184.719596758434	0.05
2	3785	184.819596758434	0.05
2	3787	184.919596758434	0.05
2	3789	185.019596758434	0.05
2	3789	185.047678969	0.05
2	3791	185.119596758434	0.05
2	3793	185.219596758434	0.05
2	3795	185.319596758434	0.05
2	3795	185.335979152	0.0495
2	3795	185.335979152	0.0495
3	0	0	0.004
3	942	46.974101355068	0
3	2932	144.190219424313	0.004
4	0	0	0.004
4	461	23.08057828677	0
4	468	23.367909541983	0.004
4	1037	51.652378732094	0
4	1196	59.558306378151	0.004
4	1600	79.493268274026	0
4	1631	81.066630320594	0.004
4	1691	83.909081031095	0
4	2031	100.872069743155	0.004
4	2371	117.028810240277	0
4	2780	137.1763645959	0.004
4	2939	144.361849101881	0
4	3455	169.066973092376	0.004
5	0	0	0.004
5	942	46.974101355068	0
5	2932	144.190219424313	0.004

