version 2
run Mysterio_ex2-0-20210906-16:33:11-12384
attr configname Mysterio_ex2
attr datetime 20210906-16:33:11
attr experiment Mysterio_ex2
attr inifile omnetpp.ini
attr iterationvars ""
attr iterationvarsf ""
attr measurement ""
attr network MysterioCommunication2
attr processid 12384
attr repetition 0
attr replication #0
attr resultdir results
attr runnumber 0
attr seedset 0
param *.host[*].mobility.numeroDrones 2
param *.numHosts 2
param *.host[*].osgModel "\"3d/drone.ive.100.scale.0,0,90.rot\""
param *.basestation.osgModel "\"3d/car.ive.50.scale.0,0,90.rot\""
param *.canvasVisualizer.energyStorageVisualizer.displayEnergyStorages true
param *.host[*].hasStatus true
param *.host[*].energyStorage.typename "\"SimpleEpEnergyStorage\""
param *.host[*].wlan[*].radio.energyConsumer.typename "\"StateBasedEpEnergyConsumer\""
param *.host[*].energyManagement.typename "\"SimpleEpEnergyManagement\""
param *.host[*].energyStorage.nominalCapacity 0.05J
param *.host[*].energyManagement.nodeShutdownCapacity "0.1 * energyStorage.nominalCapacity"
param *.host[*].energyManagement.nodeStartCapacity "0.5 * energyStorage.nominalCapacity"
param *.host[*].energyStorage.initialCapacity 0.05J
param *.host[*].energyGenerator.typename "\"AlternatingEpEnergyGenerator\""
param *.host[*].energyGenerator.powerGeneration 4mW
param *.host[*].energyGenerator.sleepInterval exponential(25s)
param *.host[*].energyGenerator.generationInterval exponential(25s)
param *.host[*].mobility.typename "\"UAVMobility\""
param *.host[*].mobility.changeInterval 1s
param *.host[*].mobility.initialMovementHeading "uniform(0deg, 360deg)"
param *.host[*].mobility.initialMovementElevation "uniform(-90deg, 90deg)"
param *.host[*].mobility.angleDelta uniform(-10deg,10deg)
param *.host[*].mobility.rotationAxisAngle uniform(-10deg,10deg)
param *.host[*].mobility.speed uniform(10mps,20mps)
param *.host[*].mobility.faceForward false
param *.host[*].mobility.initialX 220m
param *.host[*].mobility.initialY 220m
param *.host[*].mobility.initialZ 80m
param *.visualizer.osgVisualizer.typename "\"IntegratedOsgVisualizer\""
param *.visualizer.osgVisualizer.sceneVisualizer.clearColor "\"skyblue\""
param *.visualizer.osgVisualizer.sceneVisualizer.sceneImage "\"showcases/desert\""
param *.visualizer.osgVisualizer.sceneVisualizer.sceneImageSize 5000m
param *.visualizer.osgVisualizer.sceneVisualizer.axisLength 1000m
param *.visualizer.osgVisualizer.sceneVisualizer.sceneMinX -2000m
param *.visualizer.osgVisualizer.sceneVisualizer.sceneMinY -2000m
param *.visualizer.osgVisualizer.sceneVisualizer.sceneMinZ 0m
param *.visualizer.osgVisualizer.sceneVisualizer.sceneMaxX 3000m
param *.visualizer.osgVisualizer.sceneVisualizer.sceneMaxY 3000m
param *.visualizer.osgVisualizer.sceneVisualizer.sceneMaxZ 1000m
param *.visualizer.osgVisualizer.networkNodeVisualizer.displayModuleName false
param *.visualizer.*.mobilityVisualizer.displayMobility true
param *.visualizer.*.mobilityVisualizer.displayPositions true
param *.visualizer.*.mobilityVisualizer.displayOrientations false
param *.visualizer.*.mobilityVisualizer.displayVelocities true
param *.visualizer.*.mobilityVisualizer.displayMovementTrails true
param *.visualizer.*.mobilityVisualizer.animationSpeed 3
param **.constraintAreaMinX 0m
param **.constraintAreaMinY 0m
param **.constraintAreaMinZ 0m
param **.constraintAreaMaxX 1000m
param **.constraintAreaMaxY 1000m
param **.constraintAreaMaxZ 1000m
param **.networkConfiguratorModule "\"\""

vector 0 MysterioCommunication2.host[0].energyStorage residualEnergyCapacity:vector ETV
attr interpolationmode linear
attr source residualEnergyCapacityChanged
attr title "Residual energy capacity, vector"
vector 1 MysterioCommunication2.host[0].energyGenerator powerGeneration:vector ETV
attr interpolationmode sample-hold
attr source powerGenerationChanged
attr title "Power generation, vector"
vector 2 MysterioCommunication2.host[1].energyStorage residualEnergyCapacity:vector ETV
attr interpolationmode linear
attr source residualEnergyCapacityChanged
attr title "Residual energy capacity, vector"
vector 3 MysterioCommunication2.host[1].energyGenerator powerGeneration:vector ETV
attr interpolationmode sample-hold
attr source powerGenerationChanged
attr title "Power generation, vector"
vector 4 MysterioCommunication2.host[0].energyStorage powerGeneration:vector ETV
attr interpolationmode sample-hold
attr source powerGenerationChanged
attr title "Power generation, vector"
vector 5 MysterioCommunication2.host[1].energyStorage powerGeneration:vector ETV
attr interpolationmode sample-hold
attr source powerGenerationChanged
attr title "Power generation, vector"
0	0	0	0.05
0	0	0.1	0.05
0	2	0.153244216	0.05
0	3	0.2	0.05
0	5	0.3	0.05
0	7	0.4	0.05
0	9	0.5	0.05
0	10	0.597596137	0.05
0	11	0.6	0.05
0	13	0.7	0.05
0	15	0.8	0.05
0	17	0.9	0.05
0	19	1	0.05
0	21	1.1	0.05
0	23	1.2	0.05
0	24	1.28221312	0.05
0	25	1.3	0.05
0	27	1.4	0.05
0	29	1.5	0.05
0	31	1.6	0.05
0	33	1.7	0.05
0	34	1.756728793	0.05
0	35	1.8	0.05
0	37	1.9	0.05
0	39	2	0.05
0	40	2.045221708	0.05
0	41	2.1	0.05
0	43	2.2	0.05
0	45	2.3	0.05
0	47	2.4	0.05
0	48	2.483877748	0.05
0	49	2.5	0.05
0	51	2.6	0.05
0	53	2.7	0.05
0	55	2.8	0.05
0	57	2.9	0.05
0	59	3	0.05
0	61	3.1	0.05
0	62	3.144286342	0.05
0	63	3.2	0.05
0	65	3.3	0.05
0	67	3.4	0.05
0	68	3.409098688	0.05
0	69	3.5	0.05
0	71	3.6	0.05
0	72	3.683196061	0.05
0	73	3.7	0.05
0	75	3.8	0.05
0	77	3.9	0.05
0	79	4	0.05
0	81	4.1	0.05
0	82	4.103668822	0.05
0	83	4.2	0.05
0	85	4.3	0.05
0	86	4.382934148	0.05
0	87	4.4	0.05
0	89	4.5	0.05
0	91	4.6	0.05
0	93	4.7	0.05
0	95	4.8	0.05
0	96	4.815388669	0.05
0	97	4.9	0.05
0	99	5	0.05
0	100	5.076393379	0.05
0	101	5.1	0.05
0	103	5.2	0.05
0	105	5.3	0.05
0	107	5.4	0.05
0	109	5.5	0.05
0	111	5.6	0.05
0	112	5.62493698	0.05
0	113	5.7	0.05
0	115	5.8	0.05
0	117	5.9	0.05
0	119	6	0.05
0	120	6.099759013	0.05
0	121	6.1	0.05
0	123	6.2	0.05
0	125	6.3	0.05
0	127	6.4	0.05
0	129	6.5	0.05
0	130	6.558135421	0.05
0	131	6.6	0.05
0	133	6.7	0.05
0	135	6.8	0.05
0	136	6.857225851	0.05
0	137	6.9	0.05
0	139	7	0.05
0	141	7.1	0.05
0	143	7.2	0.05
0	144	7.297074676	0.05
0	145	7.3	0.05
0	147	7.4	0.05
0	148	7.482873811	0.05
0	149	7.5	0.05
0	151	7.6	0.05
0	153	7.7	0.05
0	154	7.722518893	0.05
0	155	7.8	0.05
0	157	7.9	0.05
0	158	7.994776543	0.05
0	159	8	0.05
0	161	8.1	0.05
0	163	8.2	0.05
0	164	8.257807099	0.05
0	165	8.3	0.05
0	167	8.4	0.05
0	168	8.484470509	0.05
0	169	8.5	0.05
0	171	8.6	0.05
0	173	8.7	0.05
0	174	8.765124022	0.05
0	175	8.8	0.05
0	177	8.9	0.05
0	179	9	0.05
0	181	9.1	0.05
0	182	9.150732868	0.05
0	183	9.2	0.05
0	185	9.3	0.05
0	187	9.4	0.05
0	188	9.414034549	0.05
0	189	9.5	0.05
0	191	9.6	0.05
0	193	9.7	0.05
0	195	9.8	0.05
0	196	9.829727659	0.05
0	197	9.9	0.05
0	199	10	0.05
0	200	10.035751243	0.05
0	201	10.1	0.05
0	203	10.2	0.05
0	205	10.3	0.05
0	206	10.325351659	0.05
0	207	10.4	0.05
0	209	10.5	0.05
0	211	10.6	0.05
0	212	10.601573866	0.05
0	213	10.7	0.05
0	215	10.8	0.05
0	216	10.859608951	0.05
0	217	10.9	0.05
0	219	11	0.05
0	221	11.1	0.05
0	223	11.2	0.05
0	224	11.29068406	0.05
0	225	11.3	0.05
0	227	11.4	0.05
0	229	11.5	0.05
0	230	11.531417662	0.05
0	231	11.6	0.05
0	233	11.7	0.05
0	235	11.8	0.05
0	237	11.9	0.05
0	238	11.960571559	0.05
0	239	12	0.05
0	241	12.1	0.05
0	243	12.2	0.05
0	245	12.3	0.05
0	247	12.4	0.05
0	249	12.5	0.05
0	251	12.6	0.05
0	253	12.7	0.05
0	254	12.744658015	0.05
0	255	12.8	0.05
0	257	12.9	0.05
0	259	13	0.05
0	261	13.1	0.05
0	263	13.2	0.05
0	265	13.3	0.05
0	266	13.340257315	0.0495
0	266	13.340257315	0.0495
0	267	13.4	0.04973897074
0	269	13.5	0.05
0	271	13.6	0.05
0	273	13.7	0.05
0	275	13.8	0.05
0	276	13.829286295	0.05
0	277	13.9	0.05
0	279	14	0.05
0	281	14.1	0.05
0	283	14.2	0.05
0	284	14.279214754	0.05
0	285	14.3	0.05
0	287	14.4	0.05
0	289	14.5	0.05
0	291	14.6	0.05
0	292	14.687231527	0.05
0	293	14.7	0.05
0	295	14.8	0.05
0	297	14.9	0.05
0	299	15	0.05
0	301	15.1	0.05
0	302	15.106955458	0.05
0	303	15.2	0.05
0	305	15.3	0.05
0	306	15.396394351	0.05
0	307	15.4	0.05
0	309	15.5	0.05
0	311	15.6	0.05
0	313	15.7	0.05
0	315	15.8	0.05
0	316	15.855338101	0.05
0	317	15.9	0.05
0	319	16	0.05
0	321	16.1	0.05
0	323	16.2	0.05
0	324	16.286598748	0.05
0	325	16.3	0.05
0	327	16.4	0.05
0	329	16.5	0.05
0	330	16.574386711	0.05
0	331	16.6	0.05
0	333	16.7	0.05
0	335	16.8	0.05
0	336	16.836635593	0.05
0	337	16.9	0.05
0	339	17	0.05
0	341	17.1	0.05
0	343	17.2	0.05
0	345	17.3	0.05
0	346	17.303583085	0.05
0	347	17.4	0.05
0	349	17.5	0.05
0	351	17.6	0.05
0	353	17.7	0.05
0	354	17.711006482	0.05
0	355	17.8	0.05
0	357	17.9	0.05
0	359	18	0.05
0	361	18.1	0.05
0	362	18.186757543	0.05
0	363	18.2	0.05
0	365	18.3	0.05
0	367	18.4	0.05
0	369	18.5	0.05
0	371	18.6	0.05
0	372	18.608399689	0.05
0	373	18.7	0.05
0	375	18.8	0.05
0	377	18.9	0.05
0	379	19	0.05
0	380	19.042534795	0.05
0	381	19.1	0.05
0	383	19.2	0.05
0	385	19.3	0.05
0	386	19.338490405	0.05
0	387	19.4	0.05
0	389	19.5	0.05
0	391	19.6	0.05
0	393	19.7	0.05
0	395	19.8	0.05
0	396	19.818698041	0.05
0	397	19.9	0.05
0	399	20	0.05
0	401	20.1	0.05
0	402	20.117319031	0.0495
0	402	20.117319031	0.0495
0	403	20.2	0.049830723876
0	405	20.3	0.05
0	407	20.4	0.05
0	409	20.5	0.05
0	411	20.6	0.05
0	412	20.635018093	0.05
0	413	20.7	0.05
0	415	20.8	0.05
0	417	20.9	0.05
0	419	21	0.05
0	421	21.1	0.05
0	422	21.167211802	0.05
0	423	21.2	0.05
0	425	21.3	0.05
0	427	21.4	0.05
0	428	21.465660799	0.05
0	429	21.5	0.05
0	431	21.6	0.05
0	433	21.7	0.05
0	435	21.8	0.05
0	437	21.9	0.05
0	438	21.94894618	0.05
0	439	22	0.05
0	441	22.1	0.05
0	443	22.2	0.05
0	445	22.3	0.05
0	446	22.391688406	0.05
0	447	22.4	0.05
0	449	22.5	0.05
0	450	22.597408702	0.05
0	451	22.6	0.05
0	453	22.7	0.05
0	455	22.8	0.05
0	457	22.9	0.05
0	459	23	0.05
0	460	23.073152515	0.05
0	461	23.08057828677	0.05
0	462	23.1	0.05
0	464	23.2	0.05
0	466	23.3	0.05
0	467	23.362955071	0.05
0	468	23.4	0.05
0	470	23.5	0.05
0	472	23.6	0.05
0	474	23.7	0.05
0	475	23.778686986	0.05
0	476	23.8	0.05
0	478	23.9	0.05
0	480	24	0.05
0	482	24.1	0.05
0	484	24.2	0.05
0	485	24.244885036	0.05
0	486	24.3	0.05
0	488	24.4	0.05
0	490	24.5	0.05
0	492	24.6	0.05
0	494	24.7	0.05
0	495	24.758718493	0.05
0	496	24.8	0.05
0	498	24.9	0.05
0	500	25	0.05
0	501	25.052276305	0.05
0	502	25.1	0.05
0	504	25.2	0.05
0	506	25.3	0.05
0	508	25.4	0.05
0	509	25.489057024	0.05
0	510	25.5	0.05
0	512	25.6	0.0495
0	512	25.6	0.0495
0	514	25.7	0.0495
0	515	25.750590385	0.0495
0	516	25.8	0.0495
0	518	25.9	0.0495
0	520	26	0.0495
0	522	26.1	0.0495
0	523	26.197314049	0.0495
0	524	26.2	0.0495
0	526	26.3	0.0495
0	528	26.4	0.0495
0	530	26.5	0.0495
0	532	26.6	0.0495
0	533	26.633854276	0.0495
0	534	26.7	0.0495
0	536	26.8	0.0495
0	538	26.9	0.0495
0	540	27	0.049005
0	540	27	0.049005
0	542	27.1	0.049005
0	543	27.165526	0.049005
0	544	27.2	0.049005
0	546	27.3	0.049005
0	548	27.4	0.049005
0	550	27.5	0.049005
0	552	27.6	0.049005
0	553	27.613127062	0.049005
0	554	27.7	0.049005
0	556	27.8	0.049005
0	558	27.9	0.049005
0	560	28	0.049005
0	562	28.1	0.049005
0	563	28.122939403	0.049005
0	564	28.2	0.049005
0	566	28.3	0.049005
0	567	28.358350927	0.049005
0	568	28.4	0.049005
0	570	28.5	0.049005
0	572	28.6	0.049005
0	574	28.7	0.049005
0	575	28.767180946	0.049005
0	576	28.8	0.049005
0	578	28.9	0.049005
0	580	29	0.049005
0	582	29.1	0.049005
0	584	29.2	0.049005
0	585	29.246592868	0.049005
0	586	29.3	0.049005
0	588	29.4	0.049005
0	590	29.5	0.049005
0	592	29.6	0.049005
0	594	29.7	0.049005
0	595	29.767567753	0.049005
0	596	29.8	0.049005
0	598	29.9	0.049005
0	600	30	0.049005
0	602	30.1	0.049005
0	603	30.186995872	0.049005
0	604	30.2	0.049005
0	606	30.3	0.049005
0	608	30.4	0.049005
0	610	30.5	0.049005
0	612	30.6	0.049005
0	613	30.699792358	0.049005
0	614	30.7	0.049005
0	616	30.8	0.049005
0	618	30.9	0.049005
0	620	31	0.049005
0	622	31.1	0.049005
0	623	31.103941777	0.049005
0	624	31.2	0.049005
0	626	31.3	0.049005
0	627	31.33131262	0.049005
0	628	31.4	0.049005
0	630	31.5	0.049005
0	632	31.6	0.049005
0	634	31.7	0.049005
0	635	31.749343597	0.049005
0	636	31.8	0.049005
0	638	31.9	0.049005
0	640	32	0.049005
0	641	32.047658731	0.049005
0	642	32.1	0.049005
0	644	32.2	0.049005
0	646	32.3	0.049005
0	647	32.335359793	0.049005
0	648	32.4	0.04851495
0	648	32.4	0.04851495
0	650	32.5	0.04851495
0	651	32.597006674	0.04851495
0	652	32.6	0.04851495
0	654	32.7	0.04851495
0	656	32.8	0.04851495
0	658	32.9	0.04851495
0	660	33	0.04851495
0	661	33.080450149	0.04851495
0	662	33.1	0.04851495
0	664	33.2	0.04851495
0	666	33.3	0.04851495
0	667	33.378549772	0.04851495
0	668	33.4	0.04851495
0	670	33.5	0.04851495
0	672	33.6	0.04851495
0	674	33.7	0.04851495
0	675	33.761676604	0.04851495
0	676	33.8	0.04851495
0	678	33.9	0.04851495
0	680	34	0.04851495
0	682	34.1	0.04851495
0	684	34.2	0.04851495
0	685	34.204203202	0.04851495
0	686	34.3	0.04851495
0	688	34.4	0.04851495
0	690	34.5	0.04851495
0	692	34.6	0.04851495
0	693	34.645286383	0.04851495
0	694	34.7	0.04851495
0	696	34.8	0.04851495
0	698	34.9	0.04851495
0	699	34.937505043	0.04851495
0	700	35	0.04851495
0	702	35.1	0.0480298005
0	702	35.1	0.0480298005
0	704	35.2	0.0480298005
0	706	35.3	0.0480298005
0	708	35.4	0.0480298005
0	709	35.419145761	0.0480298005
0	710	35.5	0.0480298005
0	712	35.6	0.0480298005
0	714	35.7	0.0480298005
0	716	35.8	0.0480298005
0	718	35.9	0.0480298005
0	719	35.910780247	0.0480298005
0	720	36	0.0480298005
0	722	36.1	0.0480298005
0	724	36.2	0.0480298005
0	726	36.3	0.0480298005
0	727	36.36825847	0.0480298005
0	728	36.4	0.0480298005
0	730	36.5	0.047549502495
0	730	36.5	0.047549502495
0	732	36.6	0.047549502495
0	734	36.7	0.047549502495
0	735	36.787673914	0.047549502495
0	736	36.8	0.047549502495
0	738	36.9	0.047549502495
0	740	37	0.047549502495
0	742	37.1	0.047549502495
0	744	37.2	0.047549502495
0	746	37.3	0.047549502495
0	747	37.313081134	0.047549502495
0	748	37.4	0.047549502495
0	750	37.5	0.047549502495
0	752	37.6	0.047549502495
0	754	37.7	0.047549502495
0	755	37.72368712	0.047549502495
0	756	37.8	0.047549502495
0	758	37.9	0.04707400747005
0	758	37.9	0.04707400747005
0	760	38	0.04707400747005
0	762	38.1	0.04707400747005
0	763	38.187367306	0.04707400747005
0	764	38.2	0.04707400747005
0	766	38.3	0.04707400747005
0	768	38.4	0.04707400747005
0	770	38.5	0.04707400747005
0	772	38.6	0.04707400747005
0	774	38.7	0.04707400747005
0	775	38.717319874	0.04707400747005
0	776	38.8	0.04707400747005
0	778	38.9	0.04707400747005
0	780	39	0.04707400747005
0	782	39.1	0.04707400747005
0	784	39.2	0.04707400747005
0	785	39.294232135	0.04707400747005
0	786	39.3	0.04660326739535
0	786	39.3	0.04660326739535
0	788	39.4	0.04660326739535
0	790	39.5	0.04660326739535
0	792	39.6	0.04660326739535
0	794	39.7	0.04660326739535
0	796	39.8	0.04660326739535
0	797	39.872232247	0.04660326739535
0	798	39.9	0.04660326739535
0	800	40	0.04660326739535
0	802	40.1	0.04660326739535
0	804	40.2	0.04660326739535
0	806	40.3	0.04660326739535
0	808	40.4	0.04660326739535
0	809	40.419881104	0.04660326739535
0	810	40.5	0.04660326739535
0	812	40.6	0.04660326739535
0	814	40.7	0.04660326739535
0	816	40.8	0.046137234721396
0	816	40.8	0.046137234721396
0	817	40.885517101	0.046137234721396
0	818	40.9	0.046137234721396
0	820	41	0.046137234721396
0	822	41.1	0.046137234721396
0	824	41.2	0.046137234721396
0	826	41.3	0.046137234721396
0	828	41.4	0.046137234721396
0	829	41.483520931	0.046137234721396
0	830	41.5	0.046137234721396
0	832	41.6	0.046137234721396
0	834	41.7	0.046137234721396
0	836	41.8	0.046137234721396
0	838	41.9	0.046137234721396
0	839	41.945030848	0.046137234721396
0	840	42	0.046137234721396
0	842	42.1	0.046137234721396
0	844	42.2	0.045675862374182
0	844	42.2	0.045675862374182
0	846	42.3	0.045675862374182
0	847	42.363439501	0.045675862374182
0	848	42.4	0.045675862374182
0	850	42.5	0.045675862374182
0	852	42.6	0.045675862374182
0	854	42.7	0.045675862374182
0	856	42.8	0.045675862374182
0	857	42.809948188	0.045675862374182
0	858	42.9	0.045675862374182
0	860	43	0.045675862374182
0	862	43.1	0.045675862374182
0	864	43.2	0.045675862374182
0	866	43.3	0.045675862374182
0	867	43.314189856	0.045675862374182
0	868	43.4	0.045675862374182
0	870	43.5	0.045675862374182
0	872	43.6	0.04521910375044
0	872	43.6	0.04521910375044
0	874	43.7	0.04521910375044
0	876	43.8	0.04521910375044
0	877	43.888011817	0.04521910375044
0	878	43.9	0.04521910375044
0	880	44	0.04521910375044
0	882	44.1	0.04521910375044
0	884	44.2	0.04521910375044
0	886	44.3	0.04521910375044
0	887	44.345768479	0.04521910375044
0	888	44.4	0.04521910375044
0	890	44.5	0.04521910375044
0	892	44.6	0.04521910375044
0	894	44.7	0.04521910375044
0	896	44.8	0.04521910375044
0	897	44.875131457	0.04521910375044
0	898	44.9	0.04521910375044
0	900	45	0.044766912712936
0	900	45	0.044766912712936
0	902	45.1	0.044766912712936
0	903	45.162770479	0.044766912712936
0	904	45.2	0.044766912712936
0	906	45.3	0.044766912712936
0	908	45.4	0.044766912712936
0	910	45.5	0.044766912712936
0	912	45.6	0.044766912712936
0	913	45.659959771	0.044766912712936
0	914	45.7	0.044766912712936
0	916	45.8	0.044766912712936
0	918	45.9	0.044766912712936
0	919	45.937507705	0.044766912712936
0	920	46	0.044766912712936
0	922	46.1	0.044766912712936
0	924	46.2	0.044766912712936
0	926	46.3	0.044766912712936
0	928	46.4	0.044319243585806
0	928	46.4	0.044319243585806
0	929	46.452040738	0.044319243585806
0	930	46.5	0.044319243585806
0	932	46.6	0.044319243585806
0	934	46.7	0.044319243585806
0	936	46.8	0.044319243585806
0	938	46.9	0.044319243585806
0	941	47	0.044319243585806
0	942	47.08920898	0.044319243585806
0	943	47.1	0.044319243585806
0	945	47.2	0.044319243585806
0	947	47.3	0.044319243585806
0	949	47.4	0.044319243585806
0	951	47.5	0.044319243585806
0	953	47.6	0.044319243585806
0	955	47.7	0.044319243585806
0	956	47.706844777	0.043876051149948
0	956	47.706844777	0.043876051149948
0	957	47.8	0.043876051149948
0	959	47.9	0.043876051149948
0	961	48	0.043876051149948
0	963	48.1	0.043876051149948
0	965	48.2	0.043876051149948
0	966	48.278841643	0.043876051149948
0	967	48.3	0.043876051149948
0	969	48.4	0.043876051149948
0	971	48.5	0.043876051149948
0	973	48.6	0.043876051149948
0	975	48.7	0.043876051149948
0	977	48.8	0.043876051149948
0	978	48.880801711	0.043876051149948
0	979	48.9	0.043876051149948
0	981	49	0.043876051149948
0	983	49.1	0.043876051149948
0	985	49.2	0.043876051149948
0	987	49.3	0.043876051149948
0	989	49.4	0.043876051149948
0	990	49.458985846	0.043876051149948
0	991	49.5	0.043876051149948
0	993	49.6	0.043876051149948
0	995	49.7	0.043876051149948
0	997	49.8	0.043876051149948
0	999	49.9	0.043876051149948
0	1001	50	0.043876051149948
0	1002	50.040077203	0.043876051149948
0	1003	50.1	0.043876051149948
0	1005	50.2	0.043876051149948
0	1007	50.3	0.043876051149948
0	1008	50.335023904	0.043876051149948
0	1009	50.4	0.043876051149948
0	1011	50.5	0.043876051149948
0	1013	50.6	0.043876051149948
0	1016	50.7	0.043876051149948
0	1018	50.8	0.043876051149948
0	1018	50.852670259	0.043876051149948
0	1020	50.9	0.043876051149948
0	1021	50.952763834445	0.043876051149948
0	1022	50.983751046958	0.044
0	1024	51	0.044064995812168
0	1026	51.1	0.044464995812168
0	1027	51.108751046958	0.0445
0	1029	51.2	0.044864995812168
0	1030	51.233751046958	0.045
0	1032	51.3	0.045264995812168
0	1032	51.315676243	0.045327700784168
0	1033	51.358751046958	0.0455
0	1035	51.4	0.045664995812168
0	1036	51.483751046958	0.046
0	1038	51.5	0.046064995812168
0	1040	51.6	0.046464995812168
0	1041	51.608751046958	0.0465
0	1043	51.7	0.046864995812168
0	1044	51.733751046958	0.04653
0	1044	51.733751046958	0.04653
0	1046	51.8	0.046794995812168
0	1046	51.827859502	0.046906433820168
0	1047	51.851251046958	0.047
0	1049	51.9	0.047194995812168
0	1050	51.976251046958	0.0475
0	1052	52	0.047594995812168
0	1054	52.1	0.047994995812168
0	1055	52.101251046958	0.048
0	1055	52.117423843	0.048064691184168
0	1057	52.2	0.048394995812168
0	1058	52.226251046958	0.0485
0	1060	52.3	0.048794995812168
0	1061	52.351251046958	0.049
0	1063	52.4	0.049194995812168
0	1064	52.476251046958	0.0495
0	1066	52.5	0.049594995812168
0	1068	52.6	0.049994995812168
0	1069	52.601251046958	0.05
0	1071	52.7	0.05
0	1073	52.8	0.05
0	1073	52.802310139	0.05
0	1075	52.9	0.05
0	1077	53	0.05
0	1079	53.1	0.05
0	1081	53.2	0.05
0	1081	53.28134515	0.05
0	1083	53.3	0.05
0	1085	53.4	0.05
0	1087	53.5	0.05
0	1089	53.6	0.05
0	1091	53.7	0.05
0	1091	53.719679638	0.05
0	1093	53.8	0.05
0	1095	53.9	0.05
0	1097	54	0.05
0	1099	54.1	0.05
0	1099	54.182942806	0.05
0	1101	54.2	0.05
0	1103	54.3	0.05
0	1105	54.4	0.05
0	1107	54.5	0.05
0	1109	54.6	0.05
0	1109	54.615731293	0.05
0	1111	54.7	0.05
0	1113	54.8	0.05
0	1114	54.899821978	0.05
0	1115	54.9	0.05
0	1117	55	0.05
0	1119	55.1	0.05
0	1121	55.2	0.05
0	1123	55.3	0.05
0	1123	55.312419337	0.05
0	1125	55.4	0.05
0	1127	55.5	0.05
0	1129	55.6	0.05
0	1131	55.7	0.05
0	1132	55.785855967	0.05
0	1133	55.8	0.05
0	1135	55.9	0.05
0	1137	56	0.05
0	1139	56.1	0.05
0	1140	56.191496452	0.05
0	1141	56.2	0.05
0	1143	56.3	0.05
0	1145	56.4	0.05
0	1147	56.5	0.05
0	1149	56.6	0.05
0	1149	56.666635483	0.05
0	1151	56.7	0.05
0	1152	56.769634267061	0.05
0	1154	56.869634267061	0.05
0	1156	56.969634267061	0.0495
0	1156	56.969634267061	0.0495
0	1158	57.069634267061	0.0499
0	1159	57.114607	0.05
0	1160	57.169634267061	0.05
0	1162	57.269634267061	0.05
0	1164	57.369634267061	0.05
0	1166	57.469634267061	0.05
0	1168	57.569634267061	0.05
0	1169	57.60673426	0.05
0	1170	57.669634267061	0.05
0	1172	57.769634267061	0.05
0	1174	57.869634267061	0.05
0	1176	57.969634267061	0.05
0	1177	58.050091387	0.05
0	1178	58.069634267061	0.05
0	1180	58.169634267061	0.05
0	1182	58.269634267061	0.05
0	1183	58.32705391	0.05
0	1184	58.369634267061	0.05
0	1186	58.469634267061	0.05
0	1188	58.569634267061	0.05
0	1190	58.669634267061	0.05
0	1192	58.769634267061	0.05
0	1193	58.797385915	0.05
0	1194	58.869634267061	0.05
0	1196	58.969634267061	0.05
0	1198	59.069634267061	0.05
0	1200	59.169634267061	0.05
0	1202	59.269634267061	0.05
0	1204	59.369634267061	0.05
0	1205	59.427995866	0.05
0	1206	59.469634267061	0.05
0	1208	59.569634267061	0.05
0	1210	59.669634267061	0.05
0	1212	59.769634267061	0.0495
0	1212	59.769634267061	0.0495
0	1214	59.869634267061	0.0499
0	1216	59.969634267061	0.05
0	1218	60.069634267061	0.05
0	1219	60.147651373	0.05
0	1220	60.169634267061	0.05
0	1222	60.269634267061	0.05
0	1224	60.369634267061	0.05
0	1226	60.469634267061	0.05
0	1228	60.569634267061	0.05
0	1230	60.669634267061	0.05
0	1231	60.711737017	0.05
0	1232	60.769634267061	0.05
0	1234	60.869634267061	0.05
0	1236	60.969634267061	0.05
0	1238	61.069634267061	0.05
0	1240	61.169634267061	0.05
0	1242	61.269634267061	0.0495
0	1242	61.269634267061	0.0495
0	1243	61.338820855	0.049776746351756
0	1244	61.369634267061	0.0499
0	1246	61.469634267061	0.05
0	1248	61.569634267061	0.05
0	1250	61.669634267061	0.05
0	1252	61.769634267061	0.05
0	1254	61.869634267061	0.05
0	1256	61.969634267061	0.05
0	1257	62.010567241	0.05
0	1258	62.069634267061	0.05
0	1260	62.169634267061	0.05
0	1262	62.269634267061	0.05
0	1264	62.369634267061	0.05
0	1266	62.469634267061	0.05
0	1268	62.569634267061	0.05
0	1268	62.575979917	0.05
0	1270	62.669634267061	0.0495
0	1270	62.669634267061	0.0495
0	1272	62.769634267061	0.0499
0	1274	62.869634267061	0.05
0	1276	62.969634267061	0.05
0	1277	63.041302057	0.05
0	1278	63.069634267061	0.05
0	1280	63.169634267061	0.05
0	1282	63.269634267061	0.05
0	1284	63.369634267061	0.05
0	1286	63.469634267061	0.05
0	1286	63.483160063	0.05
0	1288	63.569634267061	0.05
0	1290	63.669634267061	0.05
0	1292	63.769634267061	0.05
0	1294	63.869634267061	0.05
0	1295	63.966611179	0.05
0	1296	63.969634267061	0.05
0	1298	64.069634267061	0.0495
0	1298	64.069634267061	0.0495
0	1300	64.169634267061	0.0499
0	1301	64.257467914	0.05
0	1302	64.269634267061	0.05
0	1304	64.369634267061	0.05
0	1306	64.469634267061	0.05
0	1307	64.536929635	0.05
0	1308	64.569634267061	0.05
0	1310	64.669634267061	0.05
0	1312	64.769634267061	0.05
0	1314	64.869634267061	0.05
0	1316	64.969634267061	0.05
0	1317	65.044598239	0.05
0	1318	65.069634267061	0.05
0	1320	65.169634267061	0.05
0	1322	65.269634267061	0.05
0	1324	65.369634267061	0.05
0	1326	65.469634267061	0.0495
0	1326	65.469634267061	0.0495
0	1327	65.564409364	0.049879100387756
0	1328	65.569634267061	0.0499
0	1330	65.669634267061	0.05
0	1332	65.769634267061	0.05
0	1334	65.869634267061	0.05
0	1336	65.969634267061	0.05
0	1337	66.030716443	0.05
0	1338	66.069634267061	0.05
0	1340	66.169634267061	0.05
0	1342	66.269634267061	0.05
0	1344	66.369634267061	0.05
0	1346	66.469634267061	0.05
0	1347	66.509886241	0.05
0	1348	66.569634267061	0.05
0	1350	66.669634267061	0.05
0	1352	66.769634267061	0.05
0	1354	66.869634267061	0.0495
0	1354	66.869634267061	0.0495
0	1356	66.969634267061	0.0499
0	1357	67.016885584	0.05
0	1358	67.069634267061	0.05
0	1360	67.169634267061	0.05
0	1362	67.269634267061	0.05
0	1364	67.369634267061	0.05
0	1366	67.469634267061	0.05
0	1367	67.506380275	0.05
0	1368	67.569634267061	0.05
0	1370	67.669634267061	0.05
0	1372	67.769634267061	0.05
0	1374	67.869634267061	0.05
0	1375	67.931588875	0.05
0	1376	67.969634267061	0.05
0	1378	68.069634267061	0.05
0	1380	68.169634267061	0.05
0	1381	68.197564156	0.05
0	1382	68.269634267061	0.05
0	1384	68.369634267061	0.05
0	1385	68.463108433	0.05
0	1386	68.469634267061	0.05
0	1388	68.569634267061	0.05
0	1390	68.669634267061	0.05
0	1392	68.704522475837	0.05
0	1392	68.748797644	0.05
0	1393	68.769634267061	0.05
0	1395	68.869634267061	0.05
0	1397	68.969634267061	0.05
0	1399	69.069634267061	0.05
0	1401	69.169634267061	0.05
0	1403	69.269634267061	0.05
0	1403	69.277472842	0.05
0	1405	69.369634267061	0.05
0	1407	69.469634267061	0.05
0	1409	69.569634267061	0.05
0	1411	69.669634267061	0.05
0	1413	69.769634267061	0.05
0	1414	69.807574093	0.05
0	1415	69.869634267061	0.05
0	1417	69.969634267061	0.05
0	1419	70.069634267061	0.05
0	1421	70.169634267061	0.05
0	1423	70.269634267061	0.05
0	1424	70.341514003	0.05
0	1425	70.369634267061	0.05
0	1427	70.469634267061	0.05
0	1429	70.569634267061	0.05
0	1430	70.6237321	0.05
0	1431	70.669634267061	0.05
0	1433	70.769634267061	0.05
0	1435	70.869634267061	0.05
0	1437	70.969634267061	0.05
0	1439	71.069634267061	0.05
0	1440	71.112001276	0.05
0	1441	71.169634267061	0.05
0	1443	71.269634267061	0.05
0	1445	71.369634267061	0.05
0	1447	71.469634267061	0.05
0	1448	71.560132399	0.05
0	1449	71.569634267061	0.05
0	1451	71.669634267061	0.05
0	1453	71.769634267061	0.05
0	1455	71.869634267061	0.05
0	1457	71.969634267061	0.05
0	1459	72.069634267061	0.05
0	1460	72.127288405	0.05
0	1461	72.169634267061	0.05
0	1463	72.269634267061	0.05
0	1465	72.369634267061	0.05
0	1467	72.469634267061	0.05
0	1468	72.543840682	0.05
0	1469	72.569634267061	0.05
0	1471	72.669634267061	0.05
0	1473	72.769634267061	0.05
0	1475	72.869634267061	0.05
0	1477	72.969634267061	0.05
0	1478	73.037293702	0.05
0	1479	73.069634267061	0.05
0	1481	73.169634267061	0.05
0	1483	73.269634267061	0.05
0	1484	73.312950367	0.05
0	1485	73.369634267061	0.05
0	1487	73.469634267061	0.05
0	1489	73.569634267061	0.05
0	1491	73.669634267061	0.05
0	1492	73.72164994	0.05
0	1493	73.769634267061	0.05
0	1495	73.869634267061	0.05
0	1497	73.969634267061	0.05
0	1499	74.069634267061	0.05
0	1501	74.169634267061	0.05
0	1502	74.198216413	0.05
0	1503	74.269634267061	0.05
0	1505	74.369634267061	0.05
0	1507	74.469634267061	0.05
0	1507	74.479964146	0.05
0	1509	74.569634267061	0.05
0	1511	74.669634267061	0.05
0	1513	74.769634267061	0.05
0	1515	74.869634267061	0.05
0	1516	74.898039808	0.05
0	1517	74.969634267061	0.05
0	1519	75.069634267061	0.05
0	1521	75.169634267061	0.05
0	1523	75.269634267061	0.05
0	1524	75.304843738	0.05
0	1525	75.369634267061	0.05
0	1527	75.469634267061	0.05
0	1529	75.569634267061	0.05
0	1531	75.669634267061	0.05
0	1532	75.75310045	0.05
0	1533	75.769634267061	0.05
0	1535	75.869634267061	0.05
0	1537	75.969634267061	0.05
0	1539	76.069634267061	0.05
0	1541	76.169634267061	0.05
0	1542	76.224552481	0.05
0	1543	76.269634267061	0.05
0	1545	76.369634267061	0.05
0	1547	76.469634267061	0.05
0	1549	76.569634267061	0.05
0	1550	76.638336532	0.05
0	1551	76.669634267061	0.05
0	1553	76.769634267061	0.05
0	1555	76.869634267061	0.05
0	1557	76.969634267061	0.05
0	1559	77.069634267061	0.05
0	1560	77.105354302	0.05
0	1561	77.169634267061	0.05
0	1563	77.269634267061	0.05
0	1565	77.369634267061	0.05
0	1567	77.469634267061	0.05
0	1569	77.559487827985	0.05
0	1570	77.569634267061	0.05
0	1571	77.586807877	0.05
0	1572	77.669634267061	0.05
0	1574	77.769634267061	0.0495
0	1574	77.769634267061	0.0495
0	1576	77.869634267061	0.0499
0	1578	77.969634267061	0.05
0	1579	78.007619434	0.05
0	1580	78.069634267061	0.05
0	1582	78.169634267061	0.05
0	1584	78.269634267061	0.05
0	1586	78.369634267061	0.05
0	1588	78.469634267061	0.05
0	1589	78.487225615	0.05
0	1590	78.569634267061	0.05
0	1592	78.669634267061	0.05
0	1594	78.769634267061	0.05
0	1596	78.869634267061	0.05
0	1597	78.942137374	0.05
0	1598	78.969634267061	0.05
0	1600	79.069634267061	0.05
0	1602	79.169634267061	0.0495
0	1602	79.169634267061	0.0495
0	1604	79.269634267061	0.0499
0	1606	79.369634267061	0.05
0	1607	79.398116833	0.05
0	1608	79.469634267061	0.05
0	1610	79.569634267061	0.05
0	1612	79.669634267061	0.05
0	1614	79.769634267061	0.05
0	1615	79.83988429	0.05
0	1616	79.869634267061	0.05
0	1618	79.969634267061	0.05
0	1620	80.069634267061	0.05
0	1622	80.169634267061	0.05
0	1624	80.269634267061	0.05
0	1625	80.305981216	0.05
0	1626	80.369634267061	0.05
0	1628	80.469634267061	0.05
0	1630	80.569634267061	0.0495
0	1630	80.569634267061	0.0495
0	1632	80.669634267061	0.0499
0	1634	80.769634267061	0.05
0	1636	80.869634267061	0.05
0	1638	80.969634267061	0.05
0	1638	80.98187398	0.05
0	1640	81.069634267061	0.05
0	1642	81.169634267061	0.05
0	1644	81.269634267061	0.05
0	1646	81.369634267061	0.05
0	1647	81.423284506	0.05
0	1648	81.469634267061	0.05
0	1650	81.569634267061	0.05
0	1652	81.669634267061	0.05
0	1654	81.769634267061	0.05
0	1656	81.869634267061	0.05
0	1658	81.969634267061	0.05
0	1659	82.047690304	0.05
0	1660	82.069634267061	0.05
0	1662	82.169634267061	0.05
0	1664	82.269634267061	0.05
0	1666	82.369634267061	0.05
0	1668	82.469634267061	0.05
0	1670	82.569634267061	0.05
0	1672	82.669634267061	0.05
0	1672	82.674292645	0.05
0	1674	82.769634267061	0.05
0	1676	82.869634267061	0.05
0	1678	82.969634267061	0.05
0	1680	83.069634267061	0.05
0	1682	83.169634267061	0.05
0	1684	83.269634267061	0.05
0	1685	83.320598533	0.05
0	1686	83.369634267061	0.05
0	1688	83.469634267061	0.0495
0	1688	83.469634267061	0.0495
0	1690	83.569634267061	0.0499
0	1692	83.669634267061	0.05
0	1694	83.769634267061	0.05
0	1696	83.869634267061	0.05
0	1696	83.874339814	0.05
0	1698	83.969634267061	0.05
0	1700	84.069634267061	0.05
0	1701	84.126685582	0.05
0	1702	84.169634267061	0.05
0	1704	84.269634267061	0.05
0	1706	84.369634267061	0.05
0	1708	84.469634267061	0.05
0	1709	84.54150577	0.05
0	1710	84.569634267061	0.05
0	1712	84.669634267061	0.05
0	1714	84.769634267061	0.05
0	1715	84.84101179	0.05
0	1716	84.869634267061	0.05
0	1718	84.969634267061	0.05
0	1720	85.069634267061	0.05
0	1722	85.169634267061	0.05
0	1723	85.252007743	0.05
0	1724	85.269634267061	0.05
0	1726	85.369634267061	0.05
0	1728	85.469634267061	0.05
0	1729	85.53577174	0.05
0	1730	85.569634267061	0.05
0	1732	85.669634267061	0.05
0	1734	85.769634267061	0.05
0	1736	85.869634267061	0.05
0	1738	85.969634267061	0.05
0	1738	85.984045567	0.05
0	1740	86.069634267061	0.05
0	1742	86.169634267061	0.0495
0	1742	86.169634267061	0.0495
0	1744	86.269634267061	0.0499
0	1746	86.369634267061	0.05
0	1747	86.465912941	0.05
0	1748	86.469634267061	0.05
0	1750	86.569634267061	0.05
0	1752	86.669634267061	0.05
0	1754	86.769634267061	0.05
0	1756	86.869634267061	0.05
0	1758	86.969634267061	0.05
0	1759	86.994163723	0.05
0	1760	87.069634267061	0.05
0	1762	87.169634267061	0.05
0	1764	87.269634267061	0.05
0	1765	87.285308686	0.05
0	1766	87.369634267061	0.05
0	1768	87.469634267061	0.05
0	1770	87.569634267061	0.0495
0	1770	87.569634267061	0.0495
0	1772	87.669634267061	0.0499
0	1773	87.736277569	0.05
0	1774	87.769634267061	0.05
0	1776	87.869634267061	0.05
0	1778	87.969634267061	0.05
0	1779	87.997261636	0.05
0	1780	88.069634267061	0.05
0	1782	88.169634267061	0.05
0	1784	88.269634267061	0.05
0	1786	88.369634267061	0.05
0	1788	88.469634267061	0.05
0	1789	88.510962958	0.05
0	1790	88.569634267061	0.05
0	1792	88.669634267061	0.05
0	1794	88.769634267061	0.05
0	1796	88.869634267061	0.05
0	1798	88.969634267061	0.0495
0	1798	88.969634267061	0.0495
0	1799	89.014568584	0.049679737267756
0	1800	89.069634267061	0.0499
0	1802	89.169634267061	0.05
0	1804	89.269634267061	0.05
0	1806	89.369634267061	0.05
0	1808	89.469634267061	0.05
0	1809	89.527869088	0.05
0	1810	89.569634267061	0.05
0	1812	89.669634267061	0.05
0	1814	89.769634267061	0.05
0	1816	89.869634267061	0.05
0	1818	89.969634267061	0.05
0	1819	89.992893877	0.05
0	1820	90.069634267061	0.05
0	1822	90.169634267061	0.05
0	1824	90.269634267061	0.05
0	1826	90.369634267061	0.0495
0	1826	90.369634267061	0.0495
0	1828	90.469634267061	0.0499
0	1829	90.522545833	0.05
0	1830	90.569634267061	0.05
0	1832	90.669634267061	0.05
0	1834	90.769634267061	0.05
0	1836	90.869634267061	0.05
0	1838	90.969634267061	0.05
0	1839	91.004534761	0.05
0	1840	91.069634267061	0.05
0	1842	91.169634267061	0.05
0	1844	91.269634267061	0.05
0	1846	91.369634267061	0.05
0	1847	91.463150596	0.05
0	1848	91.469634267061	0.05
0	1850	91.569634267061	0.05
0	1852	91.669634267061	0.05
0	1854	91.769634267061	0.0495
0	1854	91.769634267061	0.0495
0	1856	91.869634267061	0.0499
0	1857	91.900577479	0.05
0	1858	91.969634267061	0.05
0	1860	92.069634267061	0.05
0	1861	92.155429564	0.05
0	1862	92.169634267061	0.05
0	1864	92.269634267061	0.05
0	1866	92.369634267061	0.05
0	1867	92.455811794	0.05
0	1868	92.469634267061	0.05
0	1870	92.569634267061	0.05
0	1872	92.669634267061	0.05
0	1874	92.769634267061	0.05
0	1876	92.869634267061	0.05
0	1878	92.969634267061	0.05
0	1879	92.999504287	0.05
0	1880	93.069634267061	0.0495
0	1880	93.069634267061	0.0495
0	1882	93.169634267061	0.0499
0	1884	93.269634267061	0.05
0	1886	93.369634267061	0.05
0	1888	93.469634267061	0.05
0	1890	93.569634267061	0.05
0	1891	93.64044415	0.05
0	1892	93.669634267061	0.05
0	1894	93.769634267061	0.05
0	1896	93.869634267061	0.05
0	1898	93.969634267061	0.05
0	1900	94.069634267061	0.05
0	1902	94.169634267061	0.05
0	1903	94.234902082	0.05
0	1904	94.269634267061	0.05
0	1906	94.369634267061	0.05
0	1908	94.469634267061	0.05
0	1910	94.569634267061	0.0495
0	1910	94.569634267061	0.0495
0	1912	94.669634267061	0.0499
0	1914	94.769634267061	0.05
0	1915	94.785083674	0.05
0	1917	94.869634267061	0.05
0	1919	94.969634267061	0.05
0	1921	95.069634267061	0.05
0	1921	95.081903707	0.05
0	1923	95.169634267061	0.05
0	1925	95.269634267061	0.05
0	1927	95.369634267061	0.05
0	1929	95.469634267061	0.05
0	1930	95.525897965	0.05
0	1931	95.569634267061	0.05
0	1933	95.669634267061	0.05
0	1935	95.769634267061	0.05
0	1937	95.869634267061	0.05
0	1939	95.969634267061	0.05
0	1939	95.985079975	0.05
0	1941	96.069634267061	0.05
0	1943	96.169634267061	0.05
0	1945	96.269634267061	0.05
0	1947	96.369634267061	0.05
0	1949	96.469634267061	0.05
0	1949	96.493415092	0.05
0	1951	96.569634267061	0.05
0	1953	96.669634267061	0.05
0	1955	96.769634267061	0.05
0	1957	96.869634267061	0.05
0	1959	96.969634267061	0.05
0	1960	97.013210353	0.05
0	1961	97.069634267061	0.05
0	1963	97.169634267061	0.05
0	1965	97.269634267061	0.05
0	1967	97.369634267061	0.05
0	1968	97.463768923	0.05
0	1969	97.469634267061	0.05
0	1971	97.569634267061	0.05
0	1973	97.669634267061	0.05
0	1975	97.769634267061	0.05
0	1977	97.869634267061	0.05
0	1978	97.926639829	0.05
0	1979	97.969634267061	0.05
0	1981	98.069634267061	0.05
0	1983	98.169634267061	0.05
0	1984	98.208464956	0.05
0	1985	98.269634267061	0.05
0	1987	98.369634267061	0.05
0	1989	98.469634267061	0.05
0	1989	98.472848581	0.05
0	1991	98.569634267061	0.05
0	1993	98.669634267061	0.05
0	1995	98.769634267061	0.05
0	1997	98.869634267061	0.05
0	1999	98.969634267061	0.05
0	2000	99.009907597	0.05
0	2001	99.069634267061	0.05
0	2003	99.169634267061	0.05
0	2005	99.269634267061	0.05
0	2007	99.369634267061	0.05
0	2008	99.460630057	0.05
0	2009	99.469634267061	0.05
0	2011	99.569634267061	0.05
0	2013	99.669634267061	0.05
0	2015	99.769634267061	0.05
0	2017	99.869634267061	0.05
0	2018	99.918243772	0.05
0	2019	99.969634267061	0.05
0	2021	100.069634267061	0.05
0	2023	100.169634267061	0.05
0	2025	100.269634267061	0.05
0	2026	100.350697888	0.05
0	2027	100.369634267061	0.05
0	2029	100.469634267061	0.05
0	2031	100.569634267061	0.05
0	2033	100.669634267061	0.05
0	2035	100.769634267061	0.05
0	2036	100.806159211	0.05
0	2037	100.869634267061	0.05
0	2039	100.969634267061	0.05
0	2041	101.069634267061	0.05
0	2043	101.169634267061	0.05
0	2045	101.269634267061	0.05
0	2046	101.272374726692	0.05
0	2046	101.276232517	0.05
0	2048	101.372374726692	0.0495
0	2048	101.372374726692	0.0495
0	2050	101.472374726692	0.0499
0	2052	101.572374726692	0.05
0	2054	101.672374726692	0.05
0	2055	101.728677181	0.05
0	2056	101.772374726692	0.05
0	2058	101.872374726692	0.05
0	2060	101.972374726692	0.05
0	2062	102.072374726692	0.05
0	2064	102.172374726692	0.05
0	2066	102.272374726692	0.05
0	2067	102.30081544	0.05
0	2070	102.372374726692	0.05
0	2072	102.472374726692	0.05
0	2075	102.572374726692	0.05
0	2078	102.672374726692	0.0495
0	2078	102.672374726692	0.0495
0	2082	102.772374726692	0.0499
0	2083	102.832018618	0.05
0	2084	102.872374726692	0.05
0	2086	102.972374726692	0.05
0	2088	103.072374726692	0.05
0	2090	103.172374726692	0.05
0	2092	103.272374726692	0.05
0	2093	103.338859063	0.05
0	2094	103.372374726692	0.05
0	2096	103.472374726692	0.05
0	2098	103.572374726692	0.05
0	2100	103.672374726692	0.05
0	2102	103.772374726692	0.05
0	2103	103.803737545	0.05
0	2104	103.872374726692	0.05
0	2106	103.972374726692	0.0495
0	2106	103.972374726692	0.0495
0	2108	104.072374726692	0.0499
0	2110	104.172374726692	0.05
0	2112	104.272374726692	0.05
0	2112	104.286065992	0.05
0	2114	104.372374726692	0.05
0	2116	104.472374726692	0.05
0	2118	104.572374726692	0.05
0	2120	104.672374726692	0.05
0	2121	104.771911477	0.05
0	2122	104.772374726692	0.05
0	2124	104.872374726692	0.05
0	2126	104.972374726692	0.05
0	2128	105.072374726692	0.05
0	2130	105.172374726692	0.05
0	2131	105.210112045	0.05
0	2132	105.272374726692	0.05
0	2134	105.372374726692	0.0495
0	2134	105.372374726692	0.0495
0	2135	105.468560722	0.049884743981232
0	2136	105.472374726692	0.0499
0	2138	105.572374726692	0.05
0	2140	105.672374726692	0.05
0	2142	105.772374726692	0.05
0	2144	105.872374726692	0.05
0	2146	105.972374726692	0.05
0	2147	106.001009932	0.05
0	2148	106.072374726692	0.05
0	2150	106.172374726692	0.05
0	2152	106.272374726692	0.05
0	2154	106.372374726692	0.05
0	2156	106.472374726692	0.05
0	2158	106.572374726692	0.05
0	2159	106.671187126	0.05
0	2160	106.672374726692	0.05
0	2162	106.772374726692	0.0495
0	2162	106.772374726692	0.0495
0	2164	106.872374726692	0.0499
0	2166	106.972374726692	0.05
0	2168	107.072374726692	0.05
0	2169	107.107839886	0.05
0	2170	107.172374726692	0.05
0	2172	107.272374726692	0.05
0	2174	107.372374726692	0.05
0	2176	107.472374726692	0.05
0	2177	107.563878604	0.05
0	2178	107.572374726692	0.05
0	2180	107.672374726692	0.05
0	2182	107.772374726692	0.05
0	2184	107.872374726692	0.05
0	2186	107.972374726692	0.05
0	2188	108.072374726692	0.05
0	2189	108.124742458	0.05
0	2190	108.172374726692	0.0495
0	2190	108.172374726692	0.0495
0	2192	108.272374726692	0.0499
0	2194	108.372374726692	0.05
0	2196	108.472374726692	0.05
0	2198	108.572374726692	0.05
0	2198	108.59365783	0.05
0	2200	108.672374726692	0.05
0	2202	108.772374726692	0.05
0	2204	108.872374726692	0.05
0	2206	108.972374726692	0.05
0	2207	109.054729726	0.05
0	2208	109.072374726692	0.05
0	2210	109.172374726692	0.05
0	2212	109.272374726692	0.05
0	2213	109.351553041	0.05
0	2214	109.372374726692	0.05
0	2216	109.472374726692	0.05
0	2218	109.572374726692	0.0495
0	2218	109.572374726692	0.0495
0	2219	109.645177666	0.049791211757232
0	2220	109.672374726692	0.0499
0	2222	109.772374726692	0.05
0	2224	109.872374726692	0.05
0	2226	109.972374726692	0.05
0	2228	110.072374726692	0.05
0	2229	110.138507782	0.05
0	2230	110.172374726692	0.05
0	2232	110.272374726692	0.05
0	2234	110.372374726692	0.05
0	2236	110.472374726692	0.05
0	2238	110.572374726692	0.05
0	2239	110.632913005	0.05
0	2240	110.672374726692	0.05
0	2242	110.772374726692	0.05
0	2244	110.872374726692	0.05
0	2244	110.895590278	0.0495
0	2244	110.895590278	0.0495
0	2246	110.972374726692	0.049807137794768
0	2248	111.072374726692	0.05
0	2250	111.172374726692	0.05
0	2252	111.272374726692	0.05
0	2253	111.352972249	0.05
0	2254	111.372374726692	0.05
0	2256	111.472374726692	0.05
0	2258	111.572374726692	0.05
0	2260	111.672374726692	0.05
0	2261	111.764279503	0.05
0	2262	111.772374726692	0.05
0	2264	111.872374726692	0.05
0	2266	111.972374726692	0.05
0	2268	112.072374726692	0.05
0	2270	112.172374726692	0.05
0	2272	112.272374726692	0.05
0	2273	112.303624789	0.05
0	2274	112.372374726692	0.05
0	2276	112.472374726692	0.05
0	2278	112.572374726692	0.05
0	2280	112.672374726692	0.05
0	2282	112.772374726692	0.05
0	2283	112.845694789	0.05
0	2284	112.872374726692	0.05
0	2286	112.972374726692	0.05
0	2288	113.072374726692	0.05
0	2290	113.172374726692	0.05
0	2292	113.272374726692	0.05
0	2293	113.35794232	0.05
0	2294	113.372374726692	0.05
0	2296	113.472374726692	0.05
0	2298	113.572374726692	0.05
0	2300	113.672374726692	0.05
0	2302	113.772374726692	0.0495
0	2302	113.772374726692	0.0495
0	2303	113.848133836	0.049803036437232
0	2304	113.872374726692	0.0499
0	2306	113.972374726692	0.05
0	2308	114.072374726692	0.05
0	2310	114.172374726692	0.05
0	2312	114.272374726692	0.05
0	2313	114.340633144	0.05
0	2314	114.372374726692	0.05
0	2316	114.472374726692	0.05
0	2318	114.572374726692	0.05
0	2320	114.672374726692	0.05
0	2321	114.772364491	0.05
0	2322	114.772374726692	0.05
0	2324	114.872374726692	0.05
0	2326	114.972374726692	0.05
0	2328	115.072374726692	0.05
0	2330	115.172374726692	0.0495
0	2330	115.172374726692	0.0495
0	2331	115.244747518	0.049789491165232
0	2332	115.272374726692	0.0499
0	2334	115.372374726692	0.05
0	2336	115.472374726692	0.05
0	2338	115.572374726692	0.05
0	2340	115.672374726692	0.05
0	2341	115.72228798	0.05
0	2342	115.772374726692	0.05
0	2344	115.872374726692	0.05
0	2346	115.972374726692	0.05
0	2347	116.021348017	0.05
0	2348	116.072374726692	0.05
0	2350	116.172374726692	0.05
0	2352	116.272374726692	0.05
0	2354	116.372374726692	0.05
0	2355	116.454889582	0.05
0	2356	116.472374726692	0.0495
0	2356	116.472374726692	0.0495
0	2358	116.572374726692	0.0499
0	2360	116.672374726692	0.05
0	2362	116.772374726692	0.05
0	2364	116.872374726692	0.05
0	2366	116.972374726692	0.05
0	2366	116.985416332	0.05
0	2368	117.072374726692	0.05
0	2370	117.172374726692	0.05
0	2372	117.272374726692	0.05
0	2374	117.372374726692	0.05
0	2375	117.400082836	0.05
0	2376	117.472374726692	0.05
0	2378	117.572374726692	0.05
0	2379	117.670951534	0.05
0	2380	117.672374726692	0.05
0	2382	117.772374726692	0.05
0	2384	117.872374726692	0.0495
0	2384	117.872374726692	0.0495
0	2386	117.972374726692	0.0499
0	2388	118.072374726692	0.05
0	2390	118.172374726692	0.05
0	2391	118.222969123	0.05
0	2392	118.272374726692	0.05
0	2394	118.372374726692	0.05
0	2396	118.472374726692	0.05
0	2398	118.572374726692	0.05
0	2400	118.672374726692	0.05
0	2402	118.772374726692	0.05
0	2403	118.865775787	0.05
0	2404	118.872374726692	0.05
0	2406	118.972374726692	0.05
0	2408	119.072374726692	0.05
0	2410	119.172374726692	0.05
0	2412	119.272374726692	0.05
0	2414	119.372374726692	0.0495
0	2414	119.372374726692	0.0495
0	2416	119.472374726692	0.0499
0	2417	119.515041193	0.05
0	2418	119.572374726692	0.05
0	2420	119.672374726692	0.05
0	2422	119.772374726692	0.05
0	2424	119.872374726692	0.05
0	2426	119.972374726692	0.05
0	2428	120.072374726692	0.05
0	2429	120.122060932	0.05
0	2430	120.172374726692	0.05
0	2432	120.272374726692	0.05
0	2434	120.372374726692	0.05
0	2436	120.472374726692	0.05
0	2438	120.572374726692	0.05
0	2438	120.581602117	0.05
0	2440	120.672374726692	0.05
0	2442	120.772374726692	0.0495
0	2442	120.772374726692	0.0495
0	2443	120.872362573	0.049899951385232
0	2444	120.872374726692	0.0499
0	2446	120.972374726692	0.05
0	2448	121.072374726692	0.05
0	2450	121.172374726692	0.05
0	2452	121.272374726692	0.05
0	2454	121.372374726692	0.05
0	2455	121.461587842	0.05
0	2456	121.472374726692	0.05
0	2458	121.572374726692	0.05
0	2460	121.672374726692	0.05
0	2462	121.772374726692	0.05
0	2464	121.872374726692	0.05
0	2466	121.972374726692	0.05
0	2467	122.059033423	0.05
0	2468	122.072374726692	0.05
0	2470	122.172374726692	0.0495
0	2470	122.172374726692	0.0495
0	2472	122.272374726692	0.0499
0	2474	122.372374726692	0.05
0	2476	122.472374726692	0.05
0	2477	122.499199624	0.05
0	2478	122.572374726692	0.05
0	2480	122.672374726692	0.05
0	2482	122.772374726692	0.05
0	2484	122.872374726692	0.05
0	2486	122.972374726692	0.05
0	2486	122.978915263	0.05
0	2488	123.072374726692	0.05
0	2490	123.172374726692	0.05
0	2492	123.272374726692	0.05
0	2494	123.372374726692	0.05
0	2496	123.472374726692	0.05
0	2496	123.479415136	0.05
0	2498	123.572374726692	0.0495
0	2498	123.572374726692	0.0495
0	2500	123.672374726692	0.0499
0	2502	123.772374726692	0.05
0	2504	123.872374726692	0.05
0	2505	123.941245315	0.05
0	2506	123.972374726692	0.05
0	2508	124.072374726692	0.05
0	2510	124.172374726692	0.05
0	2512	124.272374726692	0.05
0	2514	124.372374726692	0.05
0	2514	124.397250529	0.05
0	2516	124.472374726692	0.05
0	2518	124.572374726692	0.05
0	2520	124.672374726692	0.05
0	2520	124.684953733	0.05
0	2522	124.772374726692	0.05
0	2524	124.872374726692	0.05
0	2526	124.972374726692	0.0495
0	2526	124.972374726692	0.0495
0	2528	125.072374726692	0.0499
0	2530	125.172374726692	0.05
0	2531	125.208326788	0.05
0	2532	125.272374726692	0.05
0	2534	125.372374726692	0.05
0	2536	125.472374726692	0.05
0	2538	125.572374726692	0.05
0	2539	125.667930712	0.05
0	2540	125.672374726692	0.05
0	2542	125.772374726692	0.05
0	2544	125.872374726692	0.05
0	2546	125.972374726692	0.05
0	2548	126.072374726692	0.05
0	2549	126.104956456	0.05
0	2550	126.172374726692	0.05
0	2552	126.272374726692	0.05
0	2554	126.372374726692	0.0495
0	2554	126.372374726692	0.0495
0	2556	126.472374726692	0.0499
0	2557	126.552520501	0.05
0	2558	126.572374726692	0.05
0	2560	126.672374726692	0.05
0	2562	126.772374726692	0.05
0	2564	126.872374726692	0.05
0	2566	126.972374726692	0.05
0	2568	127.072374726692	0.05
0	2569	127.150318096	0.05
0	2570	127.172374726692	0.05
0	2572	127.272374726692	0.05
0	2574	127.372374726692	0.05
0	2576	127.472374726692	0.05
0	2578	127.572374726692	0.05
0	2580	127.672374726692	0.05
0	2580	127.681906351	0.05
0	2582	127.772374726692	0.0495
0	2582	127.772374726692	0.0495
0	2584	127.872374726692	0.0499
0	2586	127.972374726692	0.05
0	2588	128.072374726692	0.05
0	2590	128.172374726692	0.05
0	2591	128.255191669	0.05
0	2592	128.272374726692	0.05
0	2594	128.372374726692	0.05
0	2596	128.472374726692	0.05
0	2598	128.572374726692	0.05
0	2600	128.672374726692	0.05
0	2602	128.772374726692	0.05
0	2604	128.872374726692	0.05
0	2605	128.922746038	0.05
0	2606	128.972374726692	0.05
0	2608	129.072374726692	0.05
0	2610	129.172374726692	0.05
0	2612	129.272374726692	0.0495
0	2612	129.272374726692	0.0495
0	2614	129.313046282092	0.0496626862216
0	2615	129.372374726692	0.0496626862216
0	2615	129.394814371	0.0496626862216
0	2617	129.472374726692	0.0496626862216
0	2619	129.572374726692	0.0496626862216
0	2621	129.672374726692	0.0496626862216
0	2623	129.772374726692	0.0496626862216
0	2624	129.86299387	0.0496626862216
0	2625	129.872374726692	0.0496626862216
0	2627	129.972374726692	0.0496626862216
0	2629	130.072374726692	0.0496626862216
0	2631	130.172374726692	0.0496626862216
0	2633	130.272374726692	0.0496626862216
0	2634	130.359781021	0.0496626862216
0	2635	130.372374726692	0.0496626862216
0	2637	130.472374726692	0.0496626862216
0	2639	130.572374726692	0.0496626862216
0	2641	130.672374726692	0.0496626862216
0	2643	130.772374726692	0.0496626862216
0	2644	130.853661271	0.0496626862216
0	2645	130.872374726692	0.0496626862216
0	2647	130.972374726692	0.0496626862216
0	2649	131.072374726692	0.0496626862216
0	2651	131.172374726692	0.0496626862216
0	2653	131.272374726692	0.0496626862216
0	2653	131.275937968	0.0496626862216
0	2655	131.372374726692	0.0496626862216
0	2657	131.472374726692	0.0496626862216
0	2659	131.572374726692	0.0496626862216
0	2661	131.672374726692	0.0496626862216
0	2662	131.726655856	0.0496626862216
0	2663	131.772374726692	0.0496626862216
0	2665	131.872374726692	0.0496626862216
0	2667	131.972374726692	0.0496626862216
0	2669	132.072374726692	0.0496626862216
0	2670	132.132437245	0.0496626862216
0	2671	132.172374726692	0.0496626862216
0	2673	132.272374726692	0.0496626862216
0	2675	132.372374726692	0.0496626862216
0	2677	132.472374726692	0.0496626862216
0	2679	132.572374726692	0.0496626862216
0	2680	132.616673608	0.0496626862216
0	2681	132.672374726692	0.0496626862216
0	2683	132.772374726692	0.0496626862216
0	2685	132.872374726692	0.0496626862216
0	2687	132.972374726692	0.0496626862216
0	2688	133.01760661	0.0496626862216
0	2689	133.072374726692	0.0496626862216
0	2691	133.172374726692	0.0496626862216
0	2692	133.270577683	0.0496626862216
0	2693	133.272374726692	0.0496626862216
0	2695	133.372374726692	0.0496626862216
0	2697	133.472374726692	0.0496626862216
0	2700	133.572374726692	0.0496626862216
0	2702	133.672374726692	0.0496626862216
0	2704	133.772374726692	0.0496626862216
0	2704	133.805425153	0.0496626862216
0	2706	133.872374726692	0.0496626862216
0	2708	133.972374726692	0.0496626862216
0	2710	134.072374726692	0.0496626862216
0	2712	134.172374726692	0.0496626862216
0	2714	134.272374726692	0.0496626862216
0	2714	134.284336192	0.0496626862216
0	2716	134.372374726692	0.0496626862216
0	2718	134.472374726692	0.0496626862216
0	2720	134.572374726692	0.0496626862216
0	2722	134.672374726692	0.0496626862216
0	2723	134.768499316	0.0496626862216
0	2724	134.772374726692	0.0496626862216
0	2726	134.872374726692	0.0496626862216
0	2728	134.972374726692	0.0496626862216
0	2730	135.072374726692	0.0496626862216
0	2732	135.172374726692	0.0496626862216
0	2733	135.251816419	0.0496626862216
0	2734	135.272374726692	0.0496626862216
0	2736	135.372374726692	0.0496626862216
0	2738	135.472374726692	0.0496626862216
0	2740	135.572374726692	0.0496626862216
0	2742	135.672374726692	0.0496626862216
0	2744	135.772374726692	0.0496626862216
0	2746	135.872374726692	0.0496626862216
0	2747	135.954229201	0.0496626862216
0	2748	135.972374726692	0.0496626862216
0	2750	136.072374726692	0.0496626862216
0	2752	136.172374726692	0.049166059359384
0	2752	136.172374726692	0.049166059359384
0	2753	136.177398353261	0.049166059359384
0	2755	136.277398353261	0.049166059359384
0	2757	136.377398353261	0.049166059359384
0	2759	136.477398353261	0.049166059359384
0	2759	136.481300272	0.049166059359384
0	2761	136.577398353261	0.049166059359384
0	2763	136.677398353261	0.049166059359384
0	2765	136.777398353261	0.049166059359384
0	2767	136.877398353261	0.049166059359384
0	2769	136.977398353261	0.049166059359384
0	2771	137.077398353261	0.049166059359384
0	2771	137.111205052	0.049166059359384
0	2773	137.177398353261	0.049166059359384
0	2775	137.277398353261	0.049166059359384
0	2777	137.377398353261	0.049166059359384
0	2779	137.477398353261	0.049166059359384
0	2781	137.577398353261	0.049166059359384
0	2783	137.677398353261	0.049166059359384
0	2783	137.69586763	0.049166059359384
0	2785	137.777398353261	0.049166059359384
0	2787	137.877398353261	0.049166059359384
0	2789	137.977398353261	0.049166059359384
0	2791	138.077398353261	0.049166059359384
0	2793	138.177398353261	0.049166059359384
0	2793	138.229381123	0.049166059359384
0	2795	138.277398353261	0.049166059359384
0	2797	138.377398353261	0.049166059359384
0	2799	138.477398353261	0.049166059359384
0	2801	138.577398353261	0.049166059359384
0	2803	138.677398353261	0.049166059359384
0	2803	138.721514119	0.049166059359384
0	2805	138.777398353261	0.049166059359384
0	2807	138.877398353261	0.049166059359384
0	2809	138.977398353261	0.049166059359384
0	2811	139.077398353261	0.049166059359384
0	2813	139.177398353261	0.049166059359384
0	2815	139.277398353261	0.049166059359384
0	2815	139.318931149	0.049166059359384
0	2817	139.377398353261	0.049166059359384
0	2819	139.477398353261	0.049166059359384
0	2821	139.577398353261	0.049166059359384
0	2823	139.677398353261	0.049166059359384
0	2825	139.777398353261	0.049166059359384
0	2825	139.800589969	0.049166059359384
0	2827	139.877398353261	0.049166059359384
0	2829	139.977398353261	0.049166059359384
0	2830	140.075700826	0.049166059359384
0	2831	140.077398353261	0.049166059359384
0	2833	140.177398353261	0.049166059359384
0	2835	140.277398353261	0.049166059359384
0	2837	140.377398353261	0.049166059359384
0	2839	140.477398353261	0.049166059359384
0	2840	140.574076927	0.049166059359384
0	2841	140.577398353261	0.049166059359384
0	2843	140.677398353261	0.049166059359384
0	2845	140.777398353261	0.049166059359384
0	2847	140.877398353261	0.049166059359384
0	2849	140.977398353261	0.049166059359384
0	2851	141.077398353261	0.049166059359384
0	2852	141.139211155	0.049166059359384
0	2853	141.177398353261	0.049166059359384
0	2855	141.277398353261	0.049166059359384
0	2857	141.377398353261	0.049166059359384
0	2859	141.477398353261	0.049166059359384
0	2861	141.577398353261	0.049166059359384
0	2862	141.648870055	0.049166059359384
0	2863	141.677398353261	0.049166059359384
0	2865	141.777398353261	0.049166059359384
0	2867	141.877398353261	0.049166059359384
0	2869	141.977398353261	0.049166059359384
0	2871	142.077398353261	0.049166059359384
0	2872	142.1700838	0.049166059359384
0	2873	142.177398353261	0.049166059359384
0	2875	142.277398353261	0.049166059359384
0	2877	142.377398353261	0.049166059359384
0	2879	142.477398353261	0.049166059359384
0	2881	142.577398353261	0.049166059359384
0	2882	142.639057687	0.049166059359384
0	2883	142.677398353261	0.049166059359384
0	2885	142.777398353261	0.049166059359384
0	2887	142.877398353261	0.049166059359384
0	2887	142.92861421	0.049166059359384
0	2889	142.977398353261	0.049166059359384
0	2891	143.077398353261	0.049166059359384
0	2893	143.177398353261	0.049166059359384
0	2895	143.277398353261	0.049166059359384
0	2895	143.30621968	0.049166059359384
0	2897	143.377398353261	0.049166059359384
0	2899	143.477398353261	0.049166059359384
0	2900	143.56779124	0.049166059359384
0	2901	143.577398353261	0.049166059359384
0	2903	143.677398353261	0.049166059359384
0	2905	143.777398353261	0.049166059359384
0	2907	143.877398353261	0.049166059359384
0	2909	143.977398353261	0.049166059359384
0	2909	143.981921698	0.049166059359384
0	2911	144.077398353261	0.049166059359384
0	2913	144.177398353261	0.049166059359384
0	2915	144.277398353261	0.049166059359384
0	2915	144.281036161	0.049166059359384
0	2917	144.377398353261	0.049166059359384
0	2919	144.477398353261	0.049166059359384
0	2921	144.577398353261	0.049166059359384
0	2923	144.677398353261	0.049166059359384
0	2924	144.764403679	0.049166059359384
0	2925	144.777398353261	0.049166059359384
0	2927	144.877398353261	0.049166059359384
0	2929	144.977398353261	0.049166059359384
0	2930	145.04391268	0.049166059359384
0	2931	145.077398353261	0.049166059359384
0	2933	145.177398353261	0.049166059359384
0	2935	145.277398353261	0.049166059359384
0	2937	145.377398353261	0.049166059359384
0	2939	145.477398353261	0.049166059359384
0	2939	145.525060189	0.049166059359384
0	2941	145.577398353261	0.049166059359384
0	2943	145.677398353261	0.049166059359384
0	2945	145.777398353261	0.049166059359384
0	2947	145.877398353261	0.049166059359384
0	2949	145.977398353261	0.049166059359384
0	2950	146.034572338	0.049166059359384
0	2951	146.077398353261	0.049166059359384
0	2953	146.177398353261	0.049166059359384
0	2955	146.277398353261	0.049166059359384
0	2957	146.377398353261	0.049166059359384
0	2959	146.477398353261	0.049166059359384
0	2959	146.510529664	0.049166059359384
0	2961	146.577398353261	0.049166059359384
0	2963	146.677398353261	0.049166059359384
0	2964	146.755549699	0.049166059359384
0	2965	146.777398353261	0.049166059359384
0	2967	146.877398353261	0.049166059359384
0	2969	146.977398353261	0.049166059359384
0	2971	147.077398353261	0.049166059359384
0	2973	147.177398353261	0.049166059359384
0	2973	147.22680604	0.049166059359384
0	2975	147.277398353261	0.049166059359384
0	2977	147.377398353261	0.049166059359384
0	2979	147.477398353261	0.049166059359384
0	2981	147.577398353261	0.049166059359384
0	2982	147.677054746	0.049166059359384
0	2983	147.677398353261	0.049166059359384
0	2985	147.777398353261	0.049166059359384
0	2987	147.877398353261	0.049166059359384
0	2989	147.977398353261	0.049166059359384
0	2991	148.077398353261	0.049166059359384
0	2992	148.135942492	0.049166059359384
0	2993	148.177398353261	0.049166059359384
0	2995	148.277398353261	0.049166059359384
0	2997	148.377398353261	0.049166059359384
0	2999	148.477398353261	0.049166059359384
0	3001	148.577398353261	0.049166059359384
0	3001	148.601751595	0.049166059359384
0	3003	148.677398353261	0.049166059359384
0	3005	148.777398353261	0.049166059359384
0	3007	148.877398353261	0.049166059359384
0	3009	148.977398353261	0.049166059359384
0	3011	149.077398353261	0.049166059359384
0	3011	149.125764808	0.049166059359384
0	3013	149.177398353261	0.049166059359384
0	3015	149.277398353261	0.049166059359384
0	3017	149.377398353261	0.049166059359384
0	3019	149.477398353261	0.049166059359384
0	3021	149.577398353261	0.049166059359384
0	3023	149.677398353261	0.049166059359384
0	3023	149.686768507	0.049166059359384
0	3025	149.777398353261	0.049166059359384
0	3027	149.877398353261	0.049166059359384
0	3028	149.963172679	0.049166059359384
0	3029	149.977398353261	0.049166059359384
0	3031	150.077398353261	0.049166059359384
0	3033	150.177398353261	0.049166059359384
0	3035	150.277398353261	0.049166059359384
0	3037	150.377398353261	0.049166059359384
0	3037	150.42359818	0.049166059359384
0	3039	150.477398353261	0.049166059359384
0	3041	150.577398353261	0.049166059359384
0	3043	150.677398353261	0.049166059359384
0	3045	150.777398353261	0.049166059359384
0	3047	150.877398353261	0.049166059359384
0	3047	150.885659515	0.049166059359384
0	3049	150.977398353261	0.049166059359384
0	3051	151.077398353261	0.049166059359384
0	3053	151.177398353261	0.049166059359384
0	3055	151.277398353261	0.049166059359384
0	3055	151.322906377	0.049166059359384
0	3057	151.377398353261	0.049166059359384
0	3059	151.477398353261	0.049166059359384
0	3061	151.577398353261	0.049166059359384
0	3063	151.677398353261	0.049166059359384
0	3064	151.764757102	0.049166059359384
0	3065	151.777398353261	0.049166059359384
0	3067	151.877398353261	0.049166059359384
0	3069	151.977398353261	0.049166059359384
0	3071	152.077398353261	0.049166059359384
0	3072	152.173775788	0.049166059359384
0	3073	152.177398353261	0.049166059359384
0	3075	152.277398353261	0.049166059359384
0	3076	152.322125325317	0.049166059359384
0	3078	152.377398353261	0.04938715147116
0	3079	152.405610485471	0.0495
0	3081	152.477398353261	0.04978715147116
0	3083	152.530610485471	0.05
0	3084	152.577398353261	0.05
0	3084	152.625141208	0.05
0	3086	152.677398353261	0.0495
0	3086	152.677398353261	0.0495
0	3088	152.777398353261	0.0499
0	3090	152.877398353261	0.05
0	3092	152.977398353261	0.05
0	3094	153.077398353261	0.05
0	3095	153.159738505	0.05
0	3096	153.177398353261	0.05
0	3099	153.277398353261	0.05
0	3102	153.377398353261	0.05
0	3105	153.477398353261	0.05
0	3108	153.577398353261	0.05
0	3111	153.677398353261	0.05
0	3111	153.712511668	0.05
0	3113	153.777398353261	0.05
0	3116	153.877398353261	0.0495
0	3116	153.877398353261	0.0495
0	3119	153.977398353261	0.0499
0	3122	154.077398353261	0.05
0	3123	154.147225405	0.05
0	3125	154.177398353261	0.05
0	3127	154.277398353261	0.05
0	3130	154.377398353261	0.05
0	3133	154.477398353261	0.05
0	3136	154.577398353261	0.05
0	3139	154.677398353261	0.05
0	3139	154.700657833	0.05
0	3141	154.777398353261	0.05
0	3144	154.877398353261	0.05
0	3147	154.977398353261	0.05
0	3150	155.077398353261	0.05
0	3150	155.12588392	0.05
0	3153	155.177398353261	0.05
0	3155	155.277398353261	0.05
0	3158	155.377398353261	0.05
0	3161	155.477398353261	0.05
0	3164	155.577398353261	0.05
0	3164	155.595429163	0.05
0	3167	155.677398353261	0.05
0	3169	155.777398353261	0.05
0	3172	155.877398353261	0.05
0	3175	155.977398353261	0.05
0	3177	156.052872937	0.05
0	3178	156.077398353261	0.05
0	3181	156.177398353261	0.05
0	3183	156.277398353261	0.05
0	3186	156.377398353261	0.05
0	3189	156.477398353261	0.05
0	3192	156.577398353261	0.05
0	3192	156.582186934	0.05
0	3194	156.677398353261	0.05
0	3196	156.777398353261	0.05
0	3198	156.877398353261	0.05
0	3200	156.977398353261	0.05
0	3202	157.077398353261	0.05
0	3203	157.139684233	0.05
0	3204	157.177398353261	0.0495
0	3204	157.177398353261	0.0495
0	3206	157.277398353261	0.0499
0	3208	157.377398353261	0.05
0	3210	157.477398353261	0.05
0	3212	157.577398353261	0.05
0	3212	157.584502693	0.05
0	3214	157.677398353261	0.05
0	3216	157.777398353261	0.05
0	3218	157.877398353261	0.05
0	3220	157.977398353261	0.05
0	3220	158.02314775	0.05
0	3222	158.077398353261	0.05
0	3224	158.177398353261	0.05
0	3226	158.277398353261	0.05
0	3228	158.377398353261	0.05
0	3230	158.477398353261	0.05
0	3230	158.491053316	0.05
0	3232	158.577398353261	0.0495
0	3232	158.577398353261	0.0495
0	3234	158.677398353261	0.0499
0	3236	158.777398353261	0.05
0	3238	158.877398353261	0.05
0	3239	158.956209121	0.05
0	3240	158.977398353261	0.05
0	3242	159.077398353261	0.05
0	3244	159.177398353261	0.05
0	3246	159.277398353261	0.05
0	3248	159.377398353261	0.05
0	3250	159.477398353261	0.05
0	3252	159.577398353261	0.05
0	3252	159.617547364	0.05
0	3254	159.677398353261	0.05
0	3256	159.777398353261	0.05
0	3258	159.877398353261	0.05
0	3260	159.977398353261	0.05
0	3262	160.077398353261	0.0495
0	3262	160.077398353261	0.0495
0	3264	160.177398353261	0.0499
0	3264	160.195044088	0.049970582938956
0	3265	160.221740877162	0.05
0	3267	160.321740877162	0.05
0	3269	160.421740877162	0.05
0	3271	160.521740877162	0.05
0	3273	160.621740877162	0.05
0	3274	160.656147757	0.05
0	3275	160.721740877162	0.05
0	3277	160.821740877162	0.05
0	3279	160.921740877162	0.05
0	3281	161.021740877162	0.05
0	3283	161.121740877162	0.05
0	3284	161.182932424	0.05
0	3285	161.221740877162	0.05
0	3287	161.321740877162	0.05
0	3289	161.421740877162	0.05
0	3291	161.521740877162	0.05
0	3292	161.581315315	0.05
0	3293	161.621740877162	0.05
0	3295	161.721740877162	0.05
0	3297	161.821740877162	0.05
0	3299	161.921740877162	0.05
0	3301	162.021740877162	0.05
0	3303	162.121740877162	0.05
0	3304	162.175070773	0.05
0	3305	162.221740877162	0.05
0	3307	162.321740877162	0.05
0	3309	162.421740877162	0.05
0	3311	162.521740877162	0.05
0	3313	162.621740877162	0.05
0	3314	162.712249807	0.05
0	3315	162.721740877162	0.05
0	3317	162.821740877162	0.05
0	3319	162.921740877162	0.05
0	3321	163.021740877162	0.05
0	3323	163.121740877162	0.05
0	3325	163.221740877162	0.05
0	3326	163.23370882	0.05
0	3327	163.321740877162	0.05
0	3329	163.421740877162	0.05
0	3331	163.521740877162	0.05
0	3331	163.526491417	0.05
0	3333	163.621740877162	0.05
0	3335	163.721740877162	0.05
0	3337	163.821740877162	0.05
0	3339	163.921740877162	0.05
0	3340	163.961700874	0.05
0	3341	164.021740877162	0.05
0	3343	164.121740877162	0.05
0	3345	164.221740877162	0.05
0	3347	164.321740877162	0.05
0	3349	164.421740877162	0.05
0	3351	164.521740877162	0.05
0	3352	164.572017409	0.05
0	3353	164.621740877162	0.05
0	3355	164.721740877162	0.05
0	3357	164.821740877162	0.05
0	3359	164.921740877162	0.05
0	3361	165.021740877162	0.05
0	3362	165.075084085	0.05
0	3363	165.121740877162	0.05
0	3365	165.221740877162	0.05
0	3367	165.321740877162	0.05
0	3369	165.421740877162	0.05
0	3371	165.521740877162	0.05
0	3372	165.545393968	0.05
0	3373	165.621740877162	0.05
0	3375	165.721740877162	0.05
0	3377	165.821740877162	0.05
0	3379	165.921740877162	0.05
0	3380	165.96342976	0.05
0	3381	166.021740877162	0.05
0	3383	166.121740877162	0.05
0	3385	166.221740877162	0.05
0	3387	166.321740877162	0.05
0	3388	166.403277196	0.05
0	3389	166.421740877162	0.05
0	3391	166.521740877162	0.05
0	3393	166.621740877162	0.05
0	3395	166.721740877162	0.05
0	3397	166.821740877162	0.05
0	3398	166.904423416	0.05
0	3399	166.921740877162	0.05
0	3401	167.021740877162	0.05
0	3403	167.121740877162	0.05
0	3404	167.162369071	0.05
0	3405	167.221740877162	0.05
0	3407	167.321740877162	0.05
0	3409	167.421740877162	0.05
0	3411	167.521740877162	0.05
0	3413	167.621740877162	0.05
0	3414	167.704020793	0.05
0	3415	167.721740877162	0.05
0	3417	167.821740877162	0.05
0	3419	167.921740877162	0.05
0	3420	167.984236462	0.05
0	3421	168.021740877162	0.05
0	3423	168.121740877162	0.05
0	3425	168.221740877162	0.05
0	3427	168.321740877162	0.05
0	3429	168.421740877162	0.05
0	3430	168.48228703	0.05
0	3431	168.521740877162	0.05
0	3433	168.621740877162	0.05
0	3435	168.721740877162	0.05
0	3437	168.821740877162	0.05
0	3438	168.916312426	0.05
0	3439	168.921740877162	0.05
0	3441	169.021740877162	0.05
0	3443	169.121740877162	0.05
0	3444	169.188905818	0.05
0	3445	169.221740877162	0.05
0	3447	169.321740877162	0.05
0	3449	169.421740877162	0.05
0	3451	169.521740877162	0.05
0	3453	169.621740877162	0.05
0	3454	169.647342496	0.05
0	3455	169.721740877162	0.05
0	3457	169.821740877162	0.05
0	3459	169.921740877162	0.05
0	3461	170.021740877162	0.05
0	3462	170.117779387	0.05
0	3463	170.121740877162	0.05
0	3465	170.221740877162	0.05
0	3467	170.321740877162	0.05
0	3469	170.421740877162	0.05
0	3471	170.521740877162	0.05
0	3472	170.593778476	0.05
0	3473	170.621740877162	0.05
0	3475	170.721740877162	0.05
0	3477	170.821740877162	0.05
0	3479	170.921740877162	0.05
0	3481	171.021740877162	0.05
0	3482	171.034789786	0.05
0	3483	171.121740877162	0.05
0	3485	171.221740877162	0.05
0	3487	171.321740877162	0.05
0	3488	171.3323059	0.05
0	3489	171.421740877162	0.05
0	3491	171.521740877162	0.05
0	3493	171.621740877162	0.05
0	3495	171.721740877162	0.05
0	3496	171.763175674	0.05
0	3497	171.821740877162	0.05
0	3499	171.921740877162	0.05
0	3501	172.021740877162	0.05
0	3503	172.121740877162	0.05
0	3504	172.182708412	0.05
0	3505	172.221740877162	0.05
0	3507	172.321740877162	0.05
0	3509	172.421740877162	0.05
0	3510	172.470370819	0.0495
0	3510	172.470370819	0.0495
0	3511	172.521740877162	0.049705480232648
0	3513	172.621740877162	0.05
0	3515	172.721740877162	0.05
0	3517	172.821740877162	0.05
0	3519	172.921740877162	0.05
0	3519	172.924596787	0.05
0	3521	173.021740877162	0.05
0	3523	173.121740877162	0.05
0	3525	173.221740877162	0.05
0	3527	173.321740877162	0.05
0	3528	173.332736437	0.05
0	3529	173.421740877162	0.05
0	3531	173.521740877162	0.05
0	3533	173.621740877162	0.05
0	3535	173.721740877162	0.05
0	3536	173.767976692	0.05
0	3537	173.821740877162	0.05
0	3539	173.921740877162	0.05
0	3541	174.021740877162	0.05
0	3543	174.121740877162	0.05
0	3544	174.190562866	0.05
0	3545	174.221740877162	0.05
0	3547	174.321740877162	0.05
0	3549	174.421740877162	0.05
0	3551	174.521740877162	0.05
0	3553	174.621740877162	0.05
0	3554	174.636320077	0.05
0	3556	174.721740877162	0.05
0	3558	174.821740877162	0.05
0	3560	174.921740877162	0.05
0	3562	175.021740877162	0.05
0	3563	175.066154674	0.05
0	3564	175.121740877162	0.05
0	3566	175.221740877162	0.0495
0	3566	175.221740877162	0.0495
0	3568	175.321740877162	0.0499
0	3570	175.421740877162	0.05
0	3571	175.492314475	0.05
0	3572	175.521740877162	0.05
0	3575	175.621740877162	0.05
0	3577	175.721740877162	0.05
0	3579	175.821740877162	0.05
0	3580	175.918951159	0.05
0	3581	175.921740877162	0.05
0	3583	176.021740877162	0.05
0	3585	176.121740877162	0.05
0	3587	176.221740877162	0.05
0	3589	176.321740877162	0.05
0	3589	176.350263169	0.05
0	3591	176.421740877162	0.05
0	3593	176.521740877162	0.05
0	3595	176.621740877162	0.05
0	3597	176.721740877162	0.05
0	3597	176.739860236	0.05
0	3599	176.821740877162	0.05
0	3601	176.921740877162	0.05
0	3603	177.021740877162	0.05
0	3605	177.121740877162	0.05
0	3607	177.221740877162	0.05
0	3609	177.321740877162	0.05
0	3609	177.337973059	0.05
0	3611	177.421740877162	0.05
0	3613	177.521740877162	0.05
0	3615	177.621740877162	0.05
0	3617	177.721740877162	0.05
0	3619	177.821740877162	0.05
0	3621	177.921740877162	0.05
0	3623	178.021740877162	0.05
0	3625	178.121740877162	0.05
0	3626	178.219528609	0.05
0	3627	178.221740877162	0.05
0	3629	178.321740877162	0.05
0	3631	178.421740877162	0.05
0	3633	178.521740877162	0.05
0	3635	178.621740877162	0.05
0	3637	178.721740877162	0.05
0	3637	178.766935048	0.05
0	3639	178.821740877162	0.05
0	3641	178.921740877162	0.05
0	3643	179.021740877162	0.05
0	3645	179.121740877162	0.05
0	3647	179.221740877162	0.05
0	3647	179.235123832	0.05
0	3649	179.321740877162	0.05
0	3651	179.421740877162	0.05
0	3653	179.521740877162	0.05
0	3655	179.621740877162	0.05
0	3656	179.681598358	0.05
0	3657	179.721740877162	0.05
0	3659	179.821740877162	0.05
0	3661	179.921740877162	0.05
0	3663	180.021740877162	0.05
0	3665	180.121740877162	0.05
0	3666	180.207356044	0.05
0	3667	180.221740877162	0.05
0	3669	180.321740877162	0.05
0	3671	180.421740877162	0.05
0	3672	180.485280514	0.05
0	3673	180.521740877162	0.05
0	3675	180.621740877162	0.05
0	3677	180.721740877162	0.05
0	3679	180.821740877162	0.05
0	3681	180.921740877162	0.05
0	3681	180.929818726	0.05
0	3683	181.021740877162	0.05
0	3685	181.121740877162	0.05
0	3687	181.221740877162	0.05
0	3689	181.321740877162	0.05
0	3691	181.421740877162	0.05
0	3691	181.43452936	0.05
0	3693	181.521740877162	0.05
0	3695	181.621740877162	0.05
0	3695	181.669480228	0.05
0	3697	181.721740877162	0.05
0	3699	181.821740877162	0.05
0	3700	181.911021331	0.05
0	3701	181.921740877162	0.05
0	3703	182.021740877162	0.05
0	3705	182.121740877162	0.05
0	3706	182.194896886	0.05
0	3707	182.221740877162	0.05
0	3709	182.321740877162	0.05
0	3711	182.421740877162	0.05
0	3713	182.521740877162	0.05
0	3715	182.621740877162	0.05
0	3717	182.721740877162	0.05
0	3718	182.802108412	0.05
0	3719	182.821740877162	0.05
0	3721	182.921740877162	0.05
0	3723	183.021740877162	0.05
0	3725	183.121740877162	0.05
0	3727	183.221740877162	0.05
0	3729	183.321740877162	0.05
0	3731	183.421740877162	0.05
0	3732	183.501517513	0.05
0	3733	183.521740877162	0.05
0	3735	183.621740877162	0.05
0	3737	183.721740877162	0.05
0	3739	183.821740877162	0.05
0	3740	183.885595729	0.05
0	3741	183.921740877162	0.05
0	3743	184.021740877162	0.05
0	3745	184.121740877162	0.05
0	3747	184.221740877162	0.05
0	3749	184.321740877162	0.05
0	3749	184.335036316	0.05
0	3751	184.421740877162	0.05
0	3753	184.521740877162	0.05
0	3755	184.621740877162	0.05
0	3757	184.721740877162	0.05
0	3757	184.752507964	0.05
0	3759	184.821740877162	0.05
0	3761	184.921740877162	0.05
0	3763	185.021740877162	0.05
0	3765	185.121740877162	0.05
0	3767	185.221740877162	0.05
0	3767	185.241462415	0.05
0	3769	185.321740877162	0.05
0	3771	185.421740877162	0.05
0	3773	185.521740877162	0.05
0	3775	185.621740877162	0.05
0	3777	185.721740877162	0.05
0	3777	185.767558729	0.05
0	3779	185.821740877162	0.05
0	3781	185.921740877162	0.05
0	3783	186.021740877162	0.05
0	3785	186.121740877162	0.05
0	3787	186.221740877162	0.05
0	3787	186.254578819	0.05
0	3789	186.321740877162	0.05
0	3791	186.421740877162	0.05
0	3793	186.521740877162	0.05
0	3795	186.621740877162	0.05
0	3797	186.721740877162	0.05
0	3797	186.77391868	0.05
0	3799	186.821740877162	0.05
0	3801	186.921740877162	0.05
0	3803	187.021740877162	0.05
0	3805	187.121740877162	0.05
0	3807	187.221740877162	0.05
0	3807	187.26557137	0.05
0	3809	187.321740877162	0.05
0	3811	187.421740877162	0.05
0	3813	187.521740877162	0.05
0	3815	187.621740877162	0.05
0	3815	187.641776491	0.05
0	3817	187.721740877162	0.05
0	3819	187.821740877162	0.05
0	3821	187.921740877162	0.05
0	3823	188.021740877162	0.05
0	3823	188.063017447	0.05
0	3825	188.121740877162	0.05
0	3827	188.221740877162	0.05
0	3829	188.321740877162	0.05
0	3831	188.421740877162	0.05
0	3833	188.521740877162	0.05
0	3833	188.54977267	0.05
0	3835	188.621740877162	0.05
0	3837	188.721740877162	0.05
0	3839	188.821740877162	0.05
0	3841	188.921740877162	0.05
0	3843	189.021740877162	0.05
0	3844	189.114240016	0.05
0	3845	189.121740877162	0.05
0	3847	189.221740877162	0.05
0	3849	189.321740877162	0.05
0	3850	189.405496801	0.05
0	3851	189.421740877162	0.05
0	3853	189.521740877162	0.05
0	3855	189.621740877162	0.05
0	3857	189.721740877162	0.05
0	3859	189.821740877162	0.05
0	3859	189.853534606	0.05
0	3861	189.921740877162	0.05
0	3863	190.021740877162	0.05
0	3865	190.121740877162	0.05
0	3867	190.221740877162	0.05
0	3869	190.321740877162	0.05
0	3870	190.398370879	0.05
0	3871	190.421740877162	0.05
0	3873	190.521740877162	0.05
0	3875	190.621740877162	0.05
0	3877	190.721740877162	0.05
0	3879	190.821740877162	0.05
0	3881	190.921740877162	0.05
0	3881	190.961866255	0.05
0	3883	191.021740877162	0.05
0	3885	191.121740877162	0.05
0	3887	191.221740877162	0.05
0	3889	191.321740877162	0.05
0	3891	191.421740877162	0.05
0	3893	191.521740877162	0.05
0	3894	191.597614834	0.05
0	3895	191.621740877162	0.05
0	3897	191.721740877162	0.05
0	3899	191.821740877162	0.05
0	3901	191.921740877162	0.05
0	3903	192.021740877162	0.05
0	3903	192.053554441	0.05
0	3905	192.121740877162	0.05
0	3907	192.221740877162	0.05
0	3909	192.321740877162	0.05
0	3909	192.333564928	0.05
0	3911	192.421740877162	0.05
0	3913	192.521740877162	0.05
0	3915	192.621740877162	0.05
0	3917	192.721740877162	0.05
0	3918	192.781941601	0.05
0	3919	192.821740877162	0.05
0	3921	192.921740877162	0.05
0	3923	193.021740877162	0.05
0	3925	193.121740877162	0.05
0	3926	193.218248053	0.05
0	3927	193.221740877162	0.05
0	3929	193.321740877162	0.05
0	3931	193.421740877162	0.05
0	3933	193.521740877162	0.05
0	3935	193.621740877162	0.05
0	3935	193.646180803	0.05
0	3936	193.657932209614	0.05
0	3938	193.721740877162	0.05
0	3940	193.821740877162	0.05
0	3942	193.921740877162	0.05
0	3942	193.9397764	0.05
0	3945	194.021740877162	0.05
0	3948	194.121740877162	0.05
0	3951	194.221740877162	0.05
0	3954	194.321740877162	0.05
0	3957	194.421740877162	0.05
0	3958	194.477053159	0.0495
0	3958	194.477053159	0.0495
0	3959	194.521740877162	0.0495
0	3962	194.621740877162	0.0495
0	3965	194.721740877162	0.0495
0	3968	194.821740877162	0.0495
0	3971	194.921740877162	0.0495
0	3972	195.007335826	0.0495
0	3973	195.021740877162	0.0495
0	3976	195.121740877162	0.0495
0	3979	195.221740877162	0.0495
0	3982	195.321740877162	0.0495
0	3985	195.421740877162	0.0495
0	3987	195.521740877162	0.0495
0	3988	195.570589366	0.049005
0	3988	195.570589366	0.049005
0	3990	195.621740877162	0.049005
0	3992	195.721740877162	0.049005
0	3994	195.821740877162	0.049005
0	3996	195.921740877162	0.049005
0	3998	196.021740877162	0.049005
0	3999	196.092084466	0.049005
0	4000	196.121740877162	0.049005
0	4002	196.221740877162	0.049005
0	4004	196.321740877162	0.049005
0	4006	196.421740877162	0.049005
0	4008	196.521740877162	0.049005
0	4008	196.559155939	0.049005
0	4010	196.621740877162	0.049005
0	4012	196.721740877162	0.049005
0	4014	196.821740877162	0.049005
0	4016	196.921740877162	0.049005
0	4018	197.021740877162	0.04851495
0	4018	197.021740877162	0.04851495
0	4018	197.045473591	0.04851495
0	4020	197.121740877162	0.04851495
0	4022	197.221740877162	0.04851495
0	4023	197.314052536	0.04851495
0	4024	197.321740877162	0.04851495
0	4026	197.421740877162	0.04851495
0	4028	197.521740877162	0.04851495
0	4029	197.584189255	0.04851495
0	4030	197.621740877162	0.04851495
0	4032	197.721740877162	0.04851495
0	4034	197.821740877162	0.04851495
0	4036	197.921740877162	0.04851495
0	4038	198.021740877162	0.04851495
0	4039	198.108807484	0.04851495
0	4040	198.121740877162	0.04851495
0	4042	198.221740877162	0.04851495
0	4044	198.321740877162	0.0480298005
0	4044	198.321740877162	0.0480298005
0	4046	198.421740877162	0.0480298005
0	4048	198.521740877162	0.0480298005
0	4048	198.534513025	0.0480298005
0	4050	198.621740877162	0.0480298005
0	4052	198.721740877162	0.0480298005
0	4054	198.821740877162	0.0480298005
0	4056	198.921740877162	0.0480298005
0	4058	199.021740877162	0.0480298005
0	4058	199.038539692	0.0480298005
0	4060	199.121740877162	0.0480298005
0	4062	199.221740877162	0.0480298005
0	4064	199.321740877162	0.0480298005
0	4066	199.421740877162	0.0480298005
0	4068	199.521740877162	0.0480298005
0	4068	199.534106716	0.0480298005
0	4070	199.621740877162	0.0480298005
0	4072	199.721740877162	0.047549502495
0	4072	199.721740877162	0.047549502495
0	4074	199.821740877162	0.047549502495
0	4076	199.921740877162	0.047549502495
0	4077	200.019815041	0.047549502495
0	4078	200.021740877162	0.047549502495
0	4080	200.121740877162	0.047549502495
0	4082	200.221740877162	0.047549502495
0	4084	200.321740877162	0.047549502495
0	4086	200.421740877162	0.047549502495
0	4087	200.517599011	0.047549502495
0	4088	200.521740877162	0.047549502495
0	4090	200.621740877162	0.047549502495
0	4092	200.721740877162	0.047549502495
0	4094	200.821740877162	0.047549502495
0	4096	200.921740877162	0.047549502495
0	4097	201.015578437	0.047549502495
0	4098	201.021740877162	0.047549502495
0	4100	201.121740877162	0.04707400747005
0	4100	201.121740877162	0.04707400747005
0	4102	201.221740877162	0.04707400747005
0	4104	201.321740877162	0.04707400747005
0	4106	201.421740877162	0.04707400747005
0	4108	201.521740877162	0.04707400747005
0	4110	201.621740877162	0.04707400747005
0	4111	201.711765193	0.04707400747005
0	4112	201.721740877162	0.04707400747005
0	4114	201.781042898495	0.04707400747005
0	4115	201.821740877162	0.047236799384718
0	4117	201.887541030982	0.0475
0	4118	201.921740877162	0.04763679938472
0	4120	202.012541030982	0.048
0	4121	202.021740877162	0.04803679938472
0	4123	202.121740877162	0.04843679938472
0	4124	202.137541030982	0.0485
0	4124	202.156594459	0.048576213712072
0	4126	202.221740877162	0.04883679938472
0	4127	202.262541030982	0.049
0	4129	202.321740877162	0.04923679938472
0	4131	202.387541030982	0.0495
0	4132	202.421740877162	0.04963679938472
0	4132	202.444886641	0.049729382440072
0	4134	202.512541030982	0.05
0	4135	202.521740877162	0.05
0	4137	202.621740877162	0.05
0	4139	202.721740877162	0.05
0	4141	202.821740877162	0.05
0	4143	202.921740877162	0.05
0	4143	202.9503544	0.05
0	4145	203.021740877162	0.05
0	4147	203.121740877162	0.05
0	4149	203.221740877162	0.05
0	4151	203.321740877162	0.05
0	4152	203.403411886	0.05
0	4153	203.421740877162	0.05
0	4155	203.521740877162	0.05
0	4157	203.621740877162	0.05
0	4159	203.721740877162	0.05
0	4161	203.821740877162	0.05
0	4163	203.921740877162	0.05
0	4164	203.98215226	0.05
0	4165	204.021740877162	0.05
0	4167	204.121740877162	0.05
0	4169	204.221740877162	0.05
0	4171	204.321740877162	0.05
0	4173	204.421740877162	0.05
0	4175	204.521740877162	0.05
0	4176	204.603173542	0.05
0	4177	204.621740877162	0.05
0	4179	204.721740877162	0.05
0	4181	204.821740877162	0.05
0	4183	204.921740877162	0.05
0	4185	205.021740877162	0.05
0	4186	205.101387067	0.0495
0	4186	205.101387067	0.0495
0	4187	205.121740877162	0.049581415240648
0	4189	205.221740877162	0.049981415240648
0	4191	205.321740877162	0.05
0	4193	205.421740877162	0.05
0	4195	205.521740877162	0.05
0	4197	205.621740877162	0.05
0	4197	205.647950545	0.05
0	4199	205.721740877162	0.05
0	4201	205.821740877162	0.05
0	4203	205.921740877162	0.05
0	4205	206.021740877162	0.05
0	4206	206.084220967	0.05
0	4207	206.121740877162	0.05
0	4209	206.221740877162	0.05
0	4211	206.321740877162	0.05
0	4213	206.421740877162	0.05
0	4215	206.521740877162	0.05
0	4215	206.536548445	0.05
0	4217	206.621740877162	0.05
0	4219	206.721740877162	0.05
0	4221	206.821740877162	0.05
0	4223	206.921740877162	0.05
0	4223	206.95639087	0.05
0	4225	207.021740877162	0.05
0	4227	207.121740877162	0.05
0	4228	207.191739799	0.05
0	4229	207.221740877162	0.05
0	4231	207.321740877162	0.05
0	4233	207.421740877162	0.05
0	4235	207.521740877162	0.05
0	4237	207.621740877162	0.05
0	4238	207.710854414	0.05
0	4239	207.721740877162	0.05
0	4241	207.821740877162	0.05
0	4243	207.921740877162	0.05
0	4244	207.981123121	0.05
0	4245	208.021740877162	0.05
0	4247	208.121740877162	0.05
0	4249	208.221740877162	0.05
0	4249	208.273459177	0.05
0	4251	208.321740877162	0.05
0	4253	208.421740877162	0.05
0	4255	208.521740877162	0.05
0	4255	208.556749609	0.05
0	4257	208.621740877162	0.05
0	4259	208.721740877162	0.05
0	4261	208.821740877162	0.05
0	4263	208.921740877162	0.05
0	4264	208.981513672	0.05
0	4265	209.021740877162	0.05
0	4267	209.121740877162	0.05
0	4269	209.221740877162	0.05
0	4271	209.321740877162	0.05
0	4273	209.421740877162	0.05
0	4273	209.45355895	0.05
0	4275	209.521740877162	0.05
0	4277	209.621740877162	0.05
0	4279	209.721740877162	0.05
0	4281	209.821740877162	0.05
0	4283	209.921740877162	0.05
[...]
2	7622	373.607420617	0.05
2	7623	373.618701391858	0.05
2	7625	373.718701391858	0.05
2	7627	373.818701391858	0.05
2	7629	373.918701391858	0.05
2	7631	374.018701391858	0.05
2	7631	374.061282763	0.05
2	7633	374.118701391858	0.05
2	7635	374.218701391858	0.05
2	7637	374.318701391858	0.05
2	7639	374.418701391858	0.05
2	7639	374.48633656	0.05
2	7641	374.518701391858	0.05
2	7643	374.618701391858	0.05
2	7645	374.718701391858	0.05
2	7645	374.780549422	0.0495
2	7645	374.780549422	0.0495
2	7647	374.818701391858	0.049652607879432
2	7649	374.918701391858	0.05
2	7651	375.018701391858	0.05
2	7653	375.118701391858	0.05
2	7654	375.209352049	0.05
2	7655	375.218701391858	0.05
2	7657	375.318701391858	0.05
2	7659	375.418701391858	0.05
2	7659	375.46934941	0.05
2	7661	375.518701391858	0.05
2	7663	375.618701391858	0.05
2	7665	375.718701391858	0.05
2	7667	375.818701391858	0.05
2	7669	375.918701391858	0.05
2	7669	375.968337232	0.05
2	7671	376.018701391858	0.05
2	7673	376.118701391858	0.05
2	7675	376.218701391858	0.05
2	7675	376.260372991	0.05
2	7677	376.318701391858	0.05
2	7679	376.418701391858	0.05
2	7681	376.518701391858	0.05
2	7683	376.618701391858	0.05
2	7685	376.718701391858	0.05
2	7685	376.767698794	0.05
2	7687	376.818701391858	0.05
2	7689	376.918701391858	0.05
2	7691	377.018701391858	0.05
2	7693	377.118701391858	0.05
2	7693	377.16395956	0.05
2	7695	377.218701391858	0.05
2	7697	377.318701391858	0.05
2	7699	377.418701391858	0.05
2	7699	377.443681597	0.0495
2	7699	377.443681597	0.0495
2	7701	377.518701391858	0.049800079179432
2	7703	377.618701391858	0.05
2	7703	377.697343915	0.05
2	7705	377.718701391858	0.05
2	7707	377.818701391858	0.05
2	7709	377.918701391858	0.05
2	7709	377.94264976	0.05
2	7711	378.018701391858	0.05
2	7713	378.118701391858	0.05
2	7715	378.218701391858	0.05
2	7717	378.318701391858	0.05
2	7717	378.392782915	0.05
2	7719	378.418701391858	0.05
2	7721	378.518701391858	0.05
2	7723	378.618701391858	0.05
2	7725	378.718701391858	0.05
2	7727	378.818701391858	0.05
2	7727	378.827548309	0.05
2	7729	378.918701391858	0.05
2	7731	379.018701391858	0.05
2	7733	379.118701391858	0.05
2	7733	379.120855651	0.05
2	7735	379.218701391858	0.05
2	7737	379.318701391858	0.05
2	7739	379.418701391858	0.05
2	7741	379.518701391858	0.05
2	7741	379.576385734	0.05
2	7743	379.618701391858	0.05
2	7745	379.718701391858	0.05
2	7747	379.818701391858	0.05
2	7749	379.918701391858	0.05
2	7749	379.980517351	0.05
2	7751	380.018701391858	0.05
2	7753	380.118701391858	0.05
2	7755	380.218701391858	0.05
2	7757	380.318701391858	0.05
2	7759	380.418701391858	0.05
2	7759	380.477958787	0.05
2	7761	380.518701391858	0.05
2	7763	380.618701391858	0.05
2	7765	380.718701391858	0.05
2	7767	380.818701391858	0.05
2	7769	380.918701391858	0.05
2	7771	381.018701391858	0.05
2	7773	381.118701391858	0.05
2	7773	381.148547866	0.05
2	7775	381.218701391858	0.05
2	7777	381.318701391858	0.05
2	7779	381.418701391858	0.05
2	7781	381.518701391858	0.05
2	7783	381.618701391858	0.05
2	7783	381.662252014	0.05
2	7785	381.718701391858	0.05
2	7787	381.818701391858	0.05
2	7788	381.910484569	0.05
2	7789	381.918701391858	0.05
2	7791	382.018701391858	0.05
2	7793	382.118701391858	0.05
2	7793	382.198902589	0.05
2	7795	382.218701391858	0.05
2	7797	382.318701391858	0.05
2	7799	382.418701391858	0.05
2	7801	382.518701391858	0.05
2	7803	382.618701391858	0.05
2	7803	382.648686691	0.05
2	7805	382.718701391858	0.05
2	7807	382.818701391858	0.05
2	7809	382.918701391858	0.05
2	7811	383.018701391858	0.05
2	7812	383.104294111	0.05
2	7813	383.118701391858	0.05
2	7815	383.218701391858	0.05
2	7817	383.318701391858	0.05
2	7819	383.418701391858	0.05
2	7821	383.518701391858	0.05
2	7821	383.543024419	0.05
2	7823	383.618701391858	0.05
2	7825	383.718701391858	0.05
2	7827	383.818701391858	0.05
2	7829	383.918701391858	0.05
2	7831	384.018701391858	0.05
2	7831	384.058915321	0.05
2	7833	384.118701391858	0.05
2	7835	384.218701391858	0.05
2	7837	384.318701391858	0.05
2	7839	384.418701391858	0.05
2	7839	384.490978954	0.05
2	7841	384.518701391858	0.05
2	7843	384.618701391858	0.05
2	7845	384.718701391858	0.05
2	7847	384.818701391858	0.05
2	7849	384.918701391858	0.05
2	7849	384.954148414	0.05
2	7851	385.018701391858	0.05
2	7853	385.118701391858	0.05
2	7855	385.218701391858	0.05
2	7857	385.318701391858	0.05
2	7857	385.391166703	0.05
2	7859	385.418701391858	0.05
2	7861	385.518701391858	0.05
2	7863	385.618701391858	0.05
2	7863	385.685932795	0.0495
2	7863	385.685932795	0.0495
2	7865	385.718701391858	0.049631074387432
2	7867	385.818701391858	0.05
2	7869	385.918701391858	0.05
2	7871	386.018701391858	0.05
2	7873	386.118701391858	0.05
2	7873	386.133775801	0.05
2	7875	386.218701391858	0.05
2	7877	386.318701391858	0.05
2	7879	386.418701391858	0.05
2	7881	386.518701391858	0.05
2	7881	386.585043133	0.05
2	7883	386.618701391858	0.05
2	7885	386.718701391858	0.05
2	7887	386.818701391858	0.05
2	7889	386.918701391858	0.05
2	7891	387.018701391858	0.05
2	7893	387.118701391858	0.05
2	7893	387.140562703	0.05
2	7895	387.218701391858	0.05
2	7897	387.318701391858	0.05
2	7899	387.418701391858	0.05
2	7901	387.518701391858	0.05
2	7903	387.618701391858	0.05
2	7904	387.676446466	0.05
2	7906	387.718701391858	0.05
2	7909	387.818701391858	0.05
2	7912	387.918701391858	0.05
2	7915	388.018701391858	0.05
2	7916	388.113455323	0.05
2	7917	388.118701391858	0.05
2	7920	388.218701391858	0.0495
2	7920	388.218701391858	0.0495
2	7923	388.318701391858	0.0499
2	7924	388.395983224	0.05
2	7926	388.418701391858	0.05
2	7929	388.518701391858	0.05
2	7931	388.618701391858	0.05
2	7932	388.67725756	0.05
2	7934	388.718701391858	0.05
2	7937	388.818701391858	0.05
2	7940	388.918701391858	0.05
2	7943	389.018701391858	0.05
2	7945	389.118701391858	0.05
2	7946	389.152128058	0.05
2	7948	389.218701391858	0.0495
2	7948	389.218701391858	0.0495
2	7951	389.318701391858	0.0499
2	7954	389.418701391858	0.05
2	7957	389.518701391858	0.05
2	7958	389.615256844	0.05
2	7959	389.618701391858	0.05
2	7962	389.718701391858	0.05
2	7965	389.818701391858	0.05
2	7968	389.918701391858	0.05
2	7971	390.018701391858	0.05
2	7973	390.118701391858	0.05
2	7974	390.161607463	0.05
2	7976	390.218701391858	0.05
2	7979	390.318701391858	0.05
2	7981	390.418701391858	0.05
2	7983	390.518701391858	0.05
2	7985	390.618701391858	0.05
2	7987	390.718701391858	0.05
2	7988	390.802745719	0.05
2	7989	390.818701391858	0.05
2	7991	390.918701391858	0.05
2	7993	391.018701391858	0.05
2	7995	391.118701391858	0.05
2	7997	391.218701391858	0.05
2	7999	391.318701391858	0.05
2	7999	391.33919047	0.05
2	8001	391.418701391858	0.05
2	8003	391.518701391858	0.05
2	8005	391.618701391858	0.05
2	8007	391.718701391858	0.05
2	8009	391.818701391858	0.05
2	8011	391.918701391858	0.05
2	8011	391.934052613	0.05
2	8013	392.018701391858	0.05
2	8015	392.118701391858	0.05
2	8017	392.218701391858	0.05
2	8019	392.318701391858	0.05
2	8021	392.418701391858	0.05
2	8022	392.512824523	0.05
2	8023	392.518701391858	0.05
2	8025	392.618701391858	0.05
2	8027	392.718701391858	0.05
2	8029	392.818701391858	0.05
2	8031	392.918701391858	0.05
2	8033	393.018701391858	0.05
2	8033	393.080347531	0.05
2	8035	393.118701391858	0.05
2	8037	393.218701391858	0.05
2	8039	393.318701391858	0.05
2	8041	393.418701391858	0.05
2	8043	393.518701391858	0.05
2	8043	393.545861758	0.05
2	8045	393.618701391858	0.05
2	8047	393.718701391858	0.05
2	8049	393.818701391858	0.05
2	8051	393.918701391858	0.05
2	8053	394.018701391858	0.05
2	8055	394.118701391858	0.05
2	8056	394.205964712	0.05
2	8057	394.218701391858	0.05
2	8059	394.318701391858	0.05
2	8061	394.418701391858	0.05
2	8063	394.518701391858	0.05
2	8065	394.618701391858	0.05
2	8067	394.718701391858	0.05
2	8068	394.812388141	0.05
2	8069	394.818701391858	0.05
2	8071	394.918701391858	0.05
2	8073	395.018701391858	0.05
2	8075	395.118701391858	0.05
2	8077	395.218701391858	0.05
2	8078	395.318049022	0.05
2	8079	395.318701391858	0.05
2	8081	395.418701391858	0.05
2	8083	395.518701391858	0.05
2	8083	395.592649744	0.05
2	8085	395.618701391858	0.05
2	8087	395.718701391858	0.05
2	8089	395.818701391858	0.05
2	8091	395.918701391858	0.05
2	8093	396.018701391858	0.05
2	8093	396.078383476	0.0495
2	8093	396.078383476	0.0495
2	8095	396.118701391858	0.049661271663432
2	8097	396.218701391858	0.05
2	8099	396.318701391858	0.05
2	8101	396.418701391858	0.05
2	8103	396.518701391858	0.05
2	8104	396.618349255	0.05
2	8105	396.618701391858	0.05
2	8107	396.718701391858	0.05
2	8109	396.818701391858	0.05
2	8111	396.918701391858	0.05
2	8112	396.952579421874	0.05
2	8114	397.052579421874	0.05
2	8115	397.134936391	0.05
2	8116	397.152579421874	0.05
2	8118	397.252579421874	0.05
2	8120	397.352579421874	0.05
2	8122	397.452579421874	0.0495
2	8122	397.452579421874	0.0495
2	8124	397.552579421874	0.0499
2	8124	397.56161347	0.049936136192504
2	8126	397.652579421874	0.05
2	8128	397.752579421874	0.05
2	8129	397.830537865	0.05
2	8130	397.852579421874	0.05
2	8132	397.952579421874	0.05
2	8134	398.052579421874	0.05
2	8134	398.086909084	0.05
2	8136	398.152579421874	0.05
2	8138	398.252579421874	0.05
2	8140	398.352579421874	0.05
2	8142	398.452579421874	0.05
2	8144	398.552579421874	0.05
2	8144	398.56266118	0.05
2	8146	398.652579421874	0.05
2	8148	398.752579421874	0.0495
2	8148	398.752579421874	0.0495
2	8150	398.852579421874	0.0499
2	8152	398.952579421874	0.05
2	8153	399.005323207	0.05
2	8154	399.052579421874	0.05
2	8156	399.152579421874	0.05
2	8158	399.252579421874	0.05
2	8160	399.352579421874	0.05
2	8162	399.452579421874	0.05
2	8164	399.552579421874	0.05
2	8164	399.56862694	0.05
2	8166	399.652579421874	0.05
2	8168	399.752579421874	0.05
2	8170	399.852579421874	0.05
2	8172	399.952579421874	0.05
2	8174	400.052579421874	0.05
2	8174	400.072819858	0.05
2	8176	400.152579421874	0.0495
2	8176	400.152579421874	0.0495
2	8178	400.252579421874	0.0499
2	8180	400.352579421874	0.05
2	8182	400.452579421874	0.05
2	8183	400.525035343	0.05
2	8184	400.552579421874	0.05
2	8186	400.652579421874	0.05
2	8188	400.752579421874	0.05
2	8190	400.852579421874	0.05
2	8192	400.952579421874	0.05
2	8193	401.031784657	0.05
2	8194	401.052579421874	0.05
2	8196	401.152579421874	0.05
2	8198	401.252579421874	0.05
2	8200	401.352579421874	0.05
2	8202	401.452579421874	0.05
2	8202	401.499452269	0.05
2	8204	401.552579421874	0.0495
2	8204	401.552579421874	0.0495
2	8206	401.652579421874	0.0499
2	8208	401.752579421874	0.05
2	8210	401.852579421874	0.05
2	8212	401.952579421874	0.05
2	8212	401.987228638	0.05
2	8214	402.052579421874	0.05
2	8216	402.152579421874	0.05
2	8218	402.252579421874	0.05
2	8220	402.352579421874	0.05
2	8221	402.435873793	0.05
2	8222	402.452579421874	0.05
2	8224	402.552579421874	0.05
2	8226	402.652579421874	0.05
2	8228	402.752579421874	0.05
2	8230	402.852579421874	0.05
2	8230	402.869002417	0.05
2	8232	402.952579421874	0.0495
2	8232	402.952579421874	0.0495
2	8233	402.987369425229	0.04963916001342
2	8235	403.052579421874	0.04963916001342
2	8237	403.152579421874	0.04963916001342
2	8239	403.252579421874	0.04963916001342
2	8239	403.290387796	0.04963916001342
2	8241	403.352579421874	0.04963916001342
2	8243	403.452579421874	0.04963916001342
2	8245	403.552579421874	0.04963916001342
2	8247	403.652579421874	0.04963916001342
2	8247	403.695928459	0.04963916001342
2	8249	403.752579421874	0.04963916001342
2	8251	403.852579421874	0.04963916001342
2	8253	403.952579421874	0.04963916001342
2	8255	404.052579421874	0.04963916001342
2	8256	404.109453352	0.04963916001342
2	8257	404.152579421874	0.04963916001342
2	8259	404.252579421874	0.04963916001342
2	8261	404.352579421874	0.04963916001342
2	8263	404.452579421874	0.04963916001342
2	8265	404.552579421874	0.04963916001342
2	8265	404.555034079	0.04963916001342
2	8267	404.652579421874	0.04963916001342
2	8269	404.752579421874	0.04963916001342
2	8271	404.852579421874	0.04963916001342
2	8273	404.952579421874	0.04963916001342
2	8274	405.00566113	0.04963916001342
2	8275	405.052579421874	0.04963916001342
2	8277	405.152579421874	0.04963916001342
2	8279	405.252579421874	0.04963916001342
2	8281	405.326472546411	0.04963916001342
2	8282	405.352579421874	0.049743587515272
2	8284	405.416682543056	0.05
2	8285	405.452579421874	0.05
2	8286	405.530426425	0.05
2	8287	405.552579421874	0.05
2	8289	405.652579421874	0.05
2	8291	405.752579421874	0.05
2	8293	405.852579421874	0.05
2	8295	405.952579421874	0.05
2	8297	406.052579421874	0.05
2	8299	406.152579421874	0.05
2	8300	406.20852118	0.05
2	8301	406.252579421874	0.05
2	8303	406.352579421874	0.05
2	8305	406.452579421874	0.05
2	8307	406.552579421874	0.05
2	8309	406.652579421874	0.05
2	8309	406.684683544	0.05
2	8311	406.752579421874	0.05
2	8313	406.852579421874	0.05
2	8315	406.952579421874	0.05
2	8315	406.964593336	0.05
2	8317	407.052579421874	0.05
2	8319	407.152579421874	0.05
2	8321	407.252579421874	0.05
2	8323	407.352579421874	0.05
2	8323	407.397836767	0.05
2	8325	407.452579421874	0.05
2	8327	407.552579421874	0.05
2	8329	407.652579421874	0.05
2	8331	407.752579421874	0.05
2	8333	407.852579421874	0.05
2	8333	407.874046714	0.05
2	8335	407.952579421874	0.05
2	8337	408.052579421874	0.05
2	8339	408.152579421874	0.05
2	8341	408.252579421874	0.05
2	8343	408.352579421874	0.05
2	8343	408.354680566	0.05
2	8345	408.452579421874	0.05
2	8347	408.552579421874	0.05
2	8348	408.647224012	0.05
2	8349	408.652579421874	0.05
2	8351	408.752579421874	0.05
2	8353	408.852579421874	0.05
2	8355	408.952579421874	0.05
2	8357	409.052579421874	0.05
2	8358	409.118467099	0.05
2	8359	409.152579421874	0.05
2	8361	409.252579421874	0.05
2	8363	409.352579421874	0.05
2	8365	409.452579421874	0.05
2	8367	409.552579421874	0.05
2	8369	409.652579421874	0.05
2	8369	409.690290178	0.05
2	8371	409.752579421874	0.05
2	8373	409.852579421874	0.05
2	8375	409.952579421874	0.05
2	8377	410.052579421874	0.05
2	8378	410.126776522	0.05
2	8379	410.152579421874	0.05
2	8381	410.252579421874	0.05
2	8383	410.352579421874	0.05
2	8385	410.452579421874	0.05
2	8387	410.552579421874	0.05
2	8388	410.603222047	0.05
2	8389	410.652579421874	0.05
2	8391	410.752579421874	0.05
2	8393	410.852579421874	0.05
2	8395	410.952579421874	0.05
2	8397	411.052579421874	0.05
2	8397	411.090334456	0.05
2	8399	411.152579421874	0.05
2	8401	411.252579421874	0.05
2	8403	411.352579421874	0.05
2	8405	411.452579421874	0.05
2	8407	411.552579421874	0.05
2	8409	411.652579421874	0.05
2	8409	411.687001531	0.05
2	8411	411.752579421874	0.05
2	8413	411.852579421874	0.05
2	8415	411.952579421874	0.05
2	8415	411.981604798	0.05
2	8417	412.052579421874	0.05
2	8419	412.152579421874	0.05
2	8421	412.252579421874	0.05
2	8423	412.352579421874	0.05
2	8425	412.452579421874	0.05
2	8425	412.46846179	0.05
2	8427	412.552579421874	0.05
2	8429	412.652579421874	0.05
2	8431	412.752579421874	0.05
2	8433	412.852579421874	0.05
2	8435	412.952579421874	0.05
2	8435	412.95822643	0.05
2	8437	413.052579421874	0.05
2	8439	413.152579421874	0.05
2	8441	413.252579421874	0.05
2	8443	413.352579421874	0.05
2	8445	413.452579421874	0.05
2	8445	413.471813818	0.05
2	8447	413.552579421874	0.05
2	8449	413.652579421874	0.05
2	8451	413.752579421874	0.05
2	8453	413.852579421874	0.05
2	8454	413.91719563	0.05
2	8455	413.952579421874	0.05
2	8457	414.052579421874	0.05
2	8459	414.152579421874	0.05
2	8460	414.215649304	0.05
2	8461	414.252579421874	0.05
2	8463	414.352579421874	0.05
2	8465	414.452579421874	0.05
2	8467	414.552579421874	0.05
2	8469	414.652579421874	0.05
2	8469	414.698805322	0.05
2	8471	414.752579421874	0.05
2	8473	414.852579421874	0.05
2	8475	414.952579421874	0.05
2	8477	415.052579421874	0.05
2	8478	415.118987308	0.05
2	8479	415.152579421874	0.05
2	8481	415.252579421874	0.05
2	8483	415.352579421874	0.05
2	8484	415.445006329	0.05
2	8485	415.452579421874	0.05
2	8487	415.552579421874	0.05
2	8489	415.652579421874	0.05
2	8491	415.752579421874	0.05
2	8493	415.852579421874	0.05
2	8493	415.892269321	0.05
2	8495	415.952579421874	0.05
2	8497	416.052579421874	0.05
2	8499	416.152579421874	0.05
2	8501	416.252579421874	0.05
2	8503	416.352579421874	0.05
2	8505	416.452579421874	0.05
2	8505	416.459312539	0.05
2	8507	416.552579421874	0.05
2	8509	416.652579421874	0.05
2	8511	416.752579421874	0.05
2	8513	416.852579421874	0.05
2	8515	416.952579421874	0.05
2	8515	416.962436479	0.05
2	8517	417.052579421874	0.05
2	8519	417.152579421874	0.05
2	8521	417.252579421874	0.05
2	8523	417.352579421874	0.05
2	8525	417.452579421874	0.05
2	8526	417.527381335	0.05
2	8527	417.552579421874	0.05
2	8529	417.652579421874	0.05
2	8531	417.752579421874	0.05
2	8533	417.852579421874	0.05
2	8534	417.949667095	0.05
2	8535	417.952579421874	0.05
2	8537	418.052579421874	0.05
2	8539	418.152579421874	0.05
2	8541	418.252579421874	0.05
2	8543	418.352579421874	0.05
2	8544	418.426521253	0.05
2	8545	418.452579421874	0.05
2	8547	418.552579421874	0.05
2	8549	418.652579421874	0.05
2	8551	418.752579421874	0.05
2	8553	418.852579421874	0.05
2	8554	418.903062133	0.05
2	8555	418.952579421874	0.05
2	8557	419.052579421874	0.05
2	8559	419.152579421874	0.05
2	8561	419.252579421874	0.05
2	8563	419.352579421874	0.05
2	8564	419.422384702	0.05
2	8565	419.452579421874	0.05
2	8567	419.552579421874	0.05
2	8569	419.652579421874	0.05
2	8571	419.752579421874	0.05
2	8573	419.852579421874	0.05
2	8573	419.86225426	0.05
2	8575	419.952579421874	0.05
2	8577	420.052579421874	0.05
2	8579	420.152579421874	0.05
2	8581	420.252579421874	0.05
2	8582	420.334936939	0.05
2	8583	420.352579421874	0.05
2	8585	420.452579421874	0.05
2	8587	420.552579421874	0.05
2	8588	420.620310955	0.05
2	8589	420.652579421874	0.05
2	8591	420.752579421874	0.05
2	8593	420.852579421874	0.05
2	8595	420.952579421874	0.05
2	8597	421.052579421874	0.05
2	8598	421.122699877	0.05
2	8599	421.152579421874	0.05
2	8601	421.252579421874	0.05
2	8603	421.352579421874	0.05
2	8605	421.452579421874	0.05
2	8607	421.552579421874	0.05
2	8608	421.63053691	0.05
2	8609	421.652579421874	0.05
2	8611	421.752579421874	0.05
2	8613	421.852579421874	0.05
2	8615	421.952579421874	0.05
2	8617	422.052579421874	0.05
2	8618	422.139916	0.05
2	8619	422.152579421874	0.05
2	8621	422.252579421874	0.05
2	8623	422.352579421874	0.05
2	8625	422.452579421874	0.05
2	8627	422.552579421874	0.05
2	8628	422.648991193	0.05
2	8629	422.652579421874	0.05
2	8631	422.752579421874	0.05
2	8633	422.852579421874	0.05
2	8635	422.952579421874	0.05
2	8637	423.052579421874	0.05
2	8638	423.14166946	0.05
2	8639	423.152579421874	0.05
2	8641	423.252579421874	0.05
2	8643	423.352579421874	0.05
2	8645	423.452579421874	0.05
2	8647	423.552579421874	0.05
2	8649	423.652579421874	0.05
2	8649	423.693161107	0.05
2	8651	423.752579421874	0.05
2	8653	423.852579421874	0.05
2	8655	423.952579421874	0.05
2	8657	424.052579421874	0.05
2	8659	424.152579421874	0.05
2	8659	424.154274619	0.05
3	0	0	0.004
3	940	46.974101355068	0
3	2068	102.304782143439	0.004
3	2081	102.752993002853	0
3	3097	153.209685545671	0.004
3	3555	174.645662253159	0
3	3944	193.997924296133	0.004
3	4687	230.069210500615	0
3	4855	238.380107643131	0.004
3	5079	249.189508181045	0
3	5222	256.331120327411	0.004
3	5471	267.416403352941	0
3	5632	275.395800968567	0.004
3	5742	280.424165627169	0
3	5846	285.5718866128	0.004
3	7081	346.661371320275	0
3	7105	347.826523493174	0.004
3	8233	402.987369425229	0
3	8281	405.326472546411	0.004
4	0	0	0.004
4	461	23.08057828677	0
4	1021	50.952763834445	0.004
4	1392	68.704522475837	0
4	1569	77.559487827985	0.004
4	2614	129.313046282092	0
4	3076	152.322125325317	0.004
4	3936	193.657932209614	0
4	4114	201.781042898495	0.004
4	4286	210.030753340248	0
4	5368	263.333383142108	0.004
4	5731	279.927794123844	0
4	5755	281.067100391093	0.004
4	6624	324.228111943896	0
4	6745	330.264195203606	0.004
4	6980	341.660489454915	0
4	7904	387.671746391427	0.004
5	0	0	0.004
5	940	46.974101355068	0
5	2068	102.304782143439	0.004
5	2081	102.752993002853	0
5	3097	153.209685545671	0.004
5	3555	174.645662253159	0
5	3944	193.997924296133	0.004
5	4687	230.069210500615	0
5	4855	238.380107643131	0.004
5	5079	249.189508181045	0
5	5222	256.331120327411	0.004
5	5471	267.416403352941	0
5	5632	275.395800968567	0.004
5	5742	280.424165627169	0
5	5846	285.5718866128	0.004
5	7081	346.661371320275	0
5	7105	347.826523493174	0.004
5	8233	402.987369425229	0
5	8281	405.326472546411	0.004

