version 2
run Mysterio_ex2-0-20210907-12:29:16-13152
attr configname Mysterio_ex2
attr datetime 20210907-12:29:16
attr experiment Mysterio_ex2
attr inifile omnetpp.ini
attr iterationvars ""
attr iterationvarsf ""
attr measurement ""
attr network MysterioCommunication2
attr processid 13152
attr repetition 0
attr replication #0
attr resultdir results
attr runnumber 0
attr seedset 0
param *.host[*].mobility.numeroDrones 2
param *.numHosts 2
param *.host[*].osgModel "\"3d/drone.ive.100.scale.0,0,90.rot\""
param *.basestation.osgModel "\"3d/car.ive.50.scale.0,0,90.rot\""
param *.canvasVisualizer.energyStorageVisualizer.displayEnergyStorages true
param *.host[*].hasStatus true
param *.host[*].energyStorage.typename "\"SimpleEpEnergyStorage\""
param *.host[*].wlan[*].radio.energyConsumer.typename "\"StateBasedEpEnergyConsumer\""
param *.host[*].energyManagement.typename "\"SimpleEpEnergyManagement\""
param *.host[*].energyStorage.nominalCapacity 0.05J
param *.host[*].energyManagement.nodeShutdownCapacity "0.1 * energyStorage.nominalCapacity"
param *.host[*].energyManagement.nodeStartCapacity "0.5 * energyStorage.nominalCapacity"
param *.host[*].energyStorage.initialCapacity 0.05J
param *.host[*].energyGenerator.typename "\"AlternatingEpEnergyGenerator\""
param *.host[*].energyGenerator.powerGeneration 4mW
param *.host[*].energyGenerator.sleepInterval exponential(25s)
param *.host[*].energyGenerator.generationInterval exponential(25s)
param *.host[*].mobility.typename "\"UAVMobility\""
param *.host[*].mobility.changeInterval 1s
param *.host[*].mobility.initialMovementHeading "uniform(0deg, 360deg)"
param *.host[*].mobility.initialMovementElevation "uniform(-90deg, 90deg)"
param *.host[*].mobility.angleDelta uniform(-10deg,10deg)
param *.host[*].mobility.rotationAxisAngle uniform(-10deg,10deg)
param *.host[*].mobility.speed uniform(10mps,20mps)
param *.host[*].mobility.faceForward false
param *.host[*].mobility.initialX 220m
param *.host[*].mobility.initialY 220m
param *.host[*].mobility.initialZ 80m
param *.visualizer.osgVisualizer.typename "\"IntegratedOsgVisualizer\""
param *.visualizer.osgVisualizer.sceneVisualizer.clearColor "\"skyblue\""
param *.visualizer.osgVisualizer.sceneVisualizer.sceneImage "\"showcases/desert\""
param *.visualizer.osgVisualizer.sceneVisualizer.sceneImageSize 5000m
param *.visualizer.osgVisualizer.sceneVisualizer.axisLength 1000m
param *.visualizer.osgVisualizer.sceneVisualizer.sceneMinX -2000m
param *.visualizer.osgVisualizer.sceneVisualizer.sceneMinY -2000m
param *.visualizer.osgVisualizer.sceneVisualizer.sceneMinZ 0m
param *.visualizer.osgVisualizer.sceneVisualizer.sceneMaxX 3000m
param *.visualizer.osgVisualizer.sceneVisualizer.sceneMaxY 3000m
param *.visualizer.osgVisualizer.sceneVisualizer.sceneMaxZ 1000m
param *.visualizer.osgVisualizer.networkNodeVisualizer.displayModuleName false
param *.visualizer.*.mobilityVisualizer.displayMobility true
param *.visualizer.*.mobilityVisualizer.displayPositions true
param *.visualizer.*.mobilityVisualizer.displayOrientations false
param *.visualizer.*.mobilityVisualizer.displayVelocities true
param *.visualizer.*.mobilityVisualizer.displayMovementTrails true
param *.visualizer.*.mobilityVisualizer.animationSpeed 3
param **.constraintAreaMinX 0m
param **.constraintAreaMinY 0m
param **.constraintAreaMinZ 0m
param **.constraintAreaMaxX 1000m
param **.constraintAreaMaxY 1000m
param **.constraintAreaMaxZ 1000m
param **.networkConfiguratorModule "\"\""

vector 0 MysterioCommunication2.host[0].energyStorage residualEnergyCapacity:vector ETV
attr interpolationmode linear
attr source residualEnergyCapacityChanged
attr title "Residual energy capacity, vector"
vector 1 MysterioCommunication2.host[0].energyGenerator powerGeneration:vector ETV
attr interpolationmode sample-hold
attr source powerGenerationChanged
attr title "Power generation, vector"
vector 2 MysterioCommunication2.host[1].energyStorage residualEnergyCapacity:vector ETV
attr interpolationmode linear
attr source residualEnergyCapacityChanged
attr title "Residual energy capacity, vector"
vector 3 MysterioCommunication2.host[1].energyGenerator powerGeneration:vector ETV
attr interpolationmode sample-hold
attr source powerGenerationChanged
attr title "Power generation, vector"
vector 4 MysterioCommunication2.host[0].energyStorage powerGeneration:vector ETV
attr interpolationmode sample-hold
attr source powerGenerationChanged
attr title "Power generation, vector"
vector 5 MysterioCommunication2.host[1].energyStorage powerGeneration:vector ETV
attr interpolationmode sample-hold
attr source powerGenerationChanged
attr title "Power generation, vector"
0	0	0	0.05
0	0	0.1	0.05
0	2	0.145319626	0.05
0	3	0.2	0.05
0	5	0.3	0.05
0	7	0.4	0.05
0	9	0.5	0.05
0	10	0.535224343	0.05
0	11	0.6	0.05
0	13	0.7	0.05
0	15	0.8	0.05
0	17	0.9	0.05
0	19	1	0.05
0	21	1.1	0.05
0	23	1.2	0.05
0	24	1.247012029	0.05
0	25	1.3	0.05
0	27	1.4	0.05
0	29	1.5	0.05
0	31	1.6	0.05
0	32	1.696822633	0.05
0	33	1.7	0.05
0	35	1.8	0.05
0	37	1.9	0.05
0	38	1.963205596	0.05
0	39	2	0.05
0	41	2.1	0.05
0	42	2.193857884	0.05
0	43	2.2	0.05
0	45	2.3	0.05
0	47	2.4	0.05
0	49	2.5	0.05
0	51	2.6	0.05
0	53	2.7	0.05
0	54	2.74577518	0.05
0	55	2.8	0.05
0	57	2.9	0.05
0	59	3	0.05
0	61	3.1	0.05
0	62	3.158782642	0.05
0	63	3.2	0.05
0	65	3.3	0.05
0	67	3.4	0.05
0	69	3.5	0.05
0	71	3.6	0.05
0	73	3.7	0.05
0	74	3.712634542	0.05
0	75	3.8	0.05
0	77	3.9	0.05
0	79	4	0.05
0	81	4.1	0.05
0	83	4.2	0.05
0	85	4.3	0.05
0	86	4.356395884	0.05
0	87	4.4	0.05
0	89	4.5	0.05
0	91	4.6	0.05
0	93	4.7	0.05
0	95	4.8	0.05
0	97	4.9	0.05
0	99	5	0.05
0	100	5.071113406	0.05
0	101	5.1	0.05
0	103	5.2	0.05
0	105	5.3	0.05
0	107	5.4	0.05
0	109	5.5	0.05
0	110	5.525100337	0.05
0	111	5.6	0.05
0	113	5.7	0.05
0	115	5.8	0.05
0	117	5.9	0.05
0	119	6	0.05
0	121	6.1	0.05
0	122	6.197486953	0.05
0	123	6.2	0.05
0	125	6.3	0.05
0	127	6.4	0.05
0	129	6.5	0.05
0	131	6.6	0.05
0	133	6.7	0.05
0	134	6.77910802	0.05
0	135	6.8	0.05
0	137	6.9	0.05
0	139	7	0.05
0	140	7.075681603	0.05
0	141	7.1	0.05
0	143	7.2	0.05
0	145	7.3	0.05
0	147	7.4	0.05
0	149	7.5	0.05
0	150	7.559912563	0.05
0	151	7.6	0.05
0	153	7.7	0.05
0	155	7.8	0.05
0	157	7.9	0.05
0	159	8	0.05
0	160	8.069503969	0.05
0	161	8.1	0.05
0	163	8.2	0.05
0	165	8.3	0.05
0	167	8.4	0.05
0	168	8.485071685	0.05
0	169	8.5	0.05
0	171	8.6	0.05
0	173	8.7	0.05
0	175	8.8	0.05
0	177	8.9	0.05
0	178	8.937183694	0.05
0	179	9	0.05
0	181	9.1	0.05
0	183	9.2	0.05
0	185	9.3	0.05
0	186	9.353360944	0.05
0	187	9.4	0.05
0	189	9.5	0.05
0	191	9.6	0.05
0	192	9.61222207	0.05
0	193	9.7	0.05
0	195	9.8	0.05
0	196	9.870687934	0.05
0	197	9.9	0.05
0	199	10	0.05
0	201	10.1	0.05
0	202	10.137700405	0.05
0	203	10.2	0.05
0	205	10.3	0.05
0	207	10.4	0.05
0	208	10.413909922	0.05
0	209	10.5	0.05
0	211	10.6	0.05
0	213	10.7	0.05
0	214	10.706146663	0.05
0	215	10.8	0.05
0	217	10.9	0.05
0	219	11	0.05
0	220	11.094819301	0.05
0	221	11.1	0.05
0	223	11.2	0.05
0	225	11.3	0.05
0	227	11.4	0.05
0	229	11.5	0.05
0	230	11.598847996	0.05
0	231	11.6	0.05
0	233	11.7	0.05
0	235	11.8	0.05
0	237	11.9	0.05
0	239	12	0.05
0	241	12.1	0.05
0	242	12.155006998	0.05
0	243	12.2	0.05
0	245	12.3	0.05
0	247	12.4	0.05
0	249	12.5	0.05
0	250	12.57142936	0.05
0	251	12.6	0.05
0	253	12.7	0.05
0	255	12.8	0.05
0	256	12.863277694	0.05
0	257	12.9	0.05
0	259	13	0.05
0	261	13.1	0.05
0	263	13.2	0.05
0	264	13.256828218	0.05
0	265	13.3	0.05
0	267	13.4	0.05
0	269	13.5	0.05
0	271	13.6	0.05
0	273	13.7	0.05
0	274	13.723780777	0.05
0	275	13.8	0.05
0	277	13.9	0.05
0	279	14	0.05
0	281	14.1	0.05
0	283	14.2	0.05
0	284	14.253498175	0.05
0	285	14.3	0.05
0	287	14.4	0.05
0	289	14.5	0.05
0	291	14.6	0.05
0	293	14.7	0.05
0	294	14.726151661	0.05
0	295	14.8	0.05
0	297	14.9	0.05
0	299	15	0.05
0	301	15.1	0.05
0	303	15.2	0.05
0	304	15.298141729	0.05
0	305	15.3	0.05
0	307	15.4	0.05
0	309	15.5	0.05
0	311	15.6	0.05
0	313	15.7	0.05
0	314	15.769654495	0.05
0	315	15.8	0.05
0	317	15.9	0.05
0	319	16	0.05
0	321	16.1	0.05
0	323	16.2	0.05
0	325	16.3	0.05
0	326	16.332315775	0.05
0	327	16.4	0.05
0	329	16.5	0.05
0	331	16.6	0.05
0	333	16.7	0.05
0	335	16.8	0.05
0	337	16.9	0.05
0	338	16.943046964	0.05
0	339	17	0.05
0	341	17.1	0.05
0	343	17.2	0.05
0	345	17.3	0.05
0	347	17.4	0.05
0	348	17.428655506	0.05
0	349	17.5	0.05
0	351	17.6	0.05
0	353	17.7	0.05
0	354	17.705837674	0.05
0	355	17.8	0.05
0	357	17.9	0.05
0	359	18	0.05
0	361	18.1	0.05
0	363	18.2	0.05
0	365	18.3	0.05
0	366	18.305261149	0.05
0	367	18.4	0.05
0	369	18.5	0.05
0	371	18.6	0.05
0	373	18.7	0.05
0	375	18.8	0.05
0	376	18.838155172	0.05
0	377	18.9	0.05
0	379	19	0.05
0	381	19.1	0.05
0	382	19.102544818	0.05
0	383	19.2	0.05
0	385	19.3	0.05
0	387	19.4	0.05
0	389	19.5	0.05
0	390	19.540247632	0.05
0	391	19.6	0.05
0	393	19.7	0.05
0	395	19.8	0.05
0	396	19.834720636	0.05
0	397	19.9	0.05
0	399	20	0.05
0	401	20.1	0.05
0	402	20.128637386	0.05
0	403	20.2	0.05
0	405	20.3	0.05
0	407	20.4	0.05
0	409	20.5	0.05
0	410	20.586986068	0.05
0	411	20.6	0.05
0	413	20.7	0.05
0	415	20.8	0.05
0	417	20.9	0.05
0	419	21	0.05
0	420	21.01272904	0.05
0	421	21.1	0.05
0	423	21.2	0.05
0	425	21.3	0.05
0	427	21.4	0.05
0	428	21.427690087	0.05
0	429	21.5	0.05
0	431	21.6	0.05
0	432	21.695939911	0.05
0	433	21.7	0.05
0	435	21.8	0.05
0	437	21.9	0.05
0	439	22	0.05
0	441	22.1	0.05
0	442	22.109774566	0.05
0	443	22.2	0.05
0	445	22.3	0.05
0	447	22.4	0.05
0	449	22.5	0.05
0	450	22.502965147	0.05
0	451	22.6	0.05
0	453	22.7	0.05
0	454	22.774504285	0.05
0	455	22.8	0.05
0	457	22.9	0.05
0	459	23	0.05
0	461	23.08057828677	0.05
0	462	23.1	0.05
0	463	23.184520117	0.05
0	464	23.2	0.05
0	466	23.3	0.05
0	468	23.4	0.0495
0	468	23.4	0.0495
0	469	23.448485509	0.0495
0	470	23.5	0.0495
0	472	23.6	0.0495
0	474	23.7	0.0495
0	475	23.744424466	0.0495
0	476	23.8	0.0495
0	478	23.9	0.0495
0	479	23.993039395	0.0495
0	480	24	0.0495
0	482	24.1	0.0495
0	484	24.2	0.0495
0	486	24.3	0.0495
0	488	24.4	0.0495
0	490	24.453262600547	0.0495
0	490	24.477705301	0.049597770801812
0	491	24.5	0.049686949597812
0	493	24.578262600547	0.05
0	494	24.6	0.0495
0	494	24.6	0.0495
0	496	24.7	0.0499
0	498	24.8	0.05
0	500	24.9	0.05
0	502	25	0.05
0	503	25.038872656	0.05
0	504	25.1	0.05
0	506	25.2	0.05
0	508	25.3	0.05
0	510	25.4	0.05
0	511	25.469946202	0.05
0	512	25.5	0.05
0	514	25.6	0.05
0	516	25.7	0.05
0	517	25.732359742	0.05
0	518	25.8	0.05
0	520	25.9	0.05
0	522	26	0.0495
0	522	26	0.0495
0	524	26.1	0.0499
0	526	26.2	0.05
0	527	26.238414187	0.05
0	528	26.3	0.05
0	530	26.4	0.05
0	531	26.46280447	0.05
0	532	26.5	0.05
0	534	26.6	0.05
0	536	26.7	0.05
0	537	26.760482764	0.05
0	538	26.8	0.05
0	540	26.9	0.05
0	542	27	0.05
0	544	27.1	0.05
0	546	27.2	0.05
0	547	27.212450119	0.05
0	548	27.3	0.0495
0	548	27.3	0.0495
0	550	27.4	0.0499
0	551	27.44032357	0.05
0	552	27.5	0.05
0	554	27.6	0.05
0	556	27.7	0.05
0	558	27.8	0.05
0	560	27.9	0.05
0	561	27.967381942	0.05
0	562	28	0.05
0	564	28.1	0.05
0	566	28.2	0.05
0	568	28.3	0.05
0	570	28.4	0.05
0	571	28.423214821	0.05
0	572	28.5	0.05
0	574	28.6	0.05
0	576	28.7	0.0495
0	576	28.7	0.0495
0	578	28.8	0.0499
0	580	28.9	0.05
0	581	28.966317745	0.05
0	582	29	0.05
0	584	29.1	0.05
0	586	29.2	0.05
0	587	29.237878813	0.05
0	588	29.3	0.05
0	590	29.4	0.05
0	592	29.5	0.05
0	594	29.6	0.05
0	596	29.7	0.05
0	597	29.72179879	0.05
0	598	29.8	0.05
0	600	29.9	0.05
0	601	29.996048494	0.05
0	602	30	0.0495
0	602	30	0.0495
0	604	30.1	0.0499
0	606	30.2	0.05
0	608	30.3	0.05
0	610	30.4	0.05
0	612	30.5	0.05
0	613	30.508016692	0.05
0	614	30.6	0.05
0	616	30.7	0.05
0	617	30.7861183	0.05
0	618	30.8	0.05
0	620	30.9	0.05
0	622	31	0.05
0	624	31.1	0.05
0	626	31.2	0.05
0	627	31.21220839	0.05
0	628	31.3	0.05
0	630	31.4	0.0495
0	630	31.4	0.0495
0	632	31.5	0.0499
0	634	31.6	0.05
0	636	31.7	0.05
0	638	31.8	0.05
0	639	31.890793183	0.05
0	640	31.9	0.05
0	642	32	0.05
0	644	32.1	0.05
0	646	32.2	0.05
0	648	32.3	0.05
0	650	32.4	0.05
0	652	32.5	0.05
0	653	32.595906916	0.05
0	654	32.6	0.05
0	656	32.7	0.05
0	658	32.8	0.05
0	660	32.9	0.0495
0	660	32.9	0.0495
0	662	33	0.0499
0	664	33.1	0.05
0	665	33.197120344	0.05
0	666	33.2	0.05
0	668	33.3	0.05
0	670	33.4	0.05
0	672	33.5	0.05
0	674	33.6	0.05
0	675	33.664696543	0.05
0	676	33.7	0.05
0	678	33.8	0.05
0	680	33.9	0.05
0	682	34	0.05
0	684	34.1	0.05
0	685	34.163337964	0.05
0	686	34.2	0.05
0	688	34.3	0.0495
0	688	34.3	0.0495
0	690	34.4	0.0499
0	692	34.5	0.05
0	694	34.6	0.05
0	695	34.626106612	0.05
0	696	34.7	0.05
0	698	34.8	0.05
0	700	34.9	0.05
0	702	35	0.05
0	704	35.1	0.05
0	706	35.2	0.05
0	708	35.3	0.05
0	709	35.329440427	0.05
0	710	35.4	0.05
0	712	35.5	0.05
0	714	35.6	0.05
0	716	35.7	0.05
0	718	35.8	0.0495
0	718	35.8	0.0495
0	719	35.868842746	0.049775370984
0	720	35.9	0.0499
0	722	36	0.05
0	724	36.1	0.05
0	726	36.2	0.05
0	728	36.3	0.05
0	730	36.4	0.05
0	732	36.5	0.05
0	733	36.522663718	0.05
0	734	36.6	0.05
0	736	36.7	0.05
0	738	36.8	0.05
0	740	36.9	0.05
0	742	37	0.05
0	744	37.1	0.05
0	745	37.129693375	0.05
0	746	37.2	0.0495
0	746	37.2	0.0495
0	748	37.3	0.0499
0	750	37.4	0.05
0	752	37.5	0.05
0	754	37.6	0.05
0	755	37.624622686	0.05
0	756	37.7	0.05
0	758	37.8	0.05
0	760	37.9	0.05
0	762	38	0.05
0	764	38.1	0.05
0	766	38.2	0.05
0	767	38.24410261	0.05
0	768	38.3	0.05
0	770	38.4	0.05
0	772	38.5	0.05
0	774	38.6	0.05
0	776	38.7	0.0495
0	776	38.7	0.0495
0	778	38.8	0.0499
0	779	38.850422419	0.05
0	780	38.9	0.05
0	782	39	0.05
0	784	39.1	0.05
0	786	39.2	0.05
0	788	39.3	0.05
0	789	39.323249317	0.05
0	790	39.4	0.05
0	792	39.5	0.05
0	794	39.6	0.05
0	796	39.7	0.05
0	798	39.8	0.05
0	799	39.859989814	0.05
0	800	39.9	0.05
0	802	40	0.05
0	804	40.1	0.0495
0	804	40.1	0.0495
0	806	40.2	0.0499
0	807	40.27628617	0.05
0	808	40.3	0.05
0	810	40.4	0.05
0	812	40.5	0.05
0	814	40.6	0.05
0	816	40.7	0.05
0	817	40.763680486	0.05
0	818	40.8	0.05
0	820	40.9	0.05
0	822	41	0.05
0	824	41.1	0.05
0	826	41.2	0.05
0	827	41.235042952	0.05
0	828	41.3	0.05
0	830	41.4	0.05
0	831	41.436354184	0.0495
0	831	41.436354184	0.0495
0	832	41.5	0.049754583264
0	834	41.6	0.05
0	835	41.676330202	0.05
0	836	41.7	0.05
0	838	41.8	0.05
0	840	41.9	0.05
0	842	42	0.05
0	844	42.1	0.05
0	846	42.2	0.05
0	847	42.288294661	0.05
0	848	42.3	0.05
0	850	42.4	0.05
0	852	42.5	0.05
0	854	42.6	0.05
0	856	42.7	0.05
0	858	42.8	0.05
0	860	42.9	0.0495
0	860	42.9	0.0495
0	861	42.921211588	0.049584846352
0	862	43	0.0499
0	864	43.042842394953	0.05
0	865	43.1	0.05
0	867	43.2	0.05
0	869	43.3	0.05
0	871	43.4	0.05
0	872	43.420581169	0.05
0	873	43.5	0.05
0	875	43.6	0.05
0	877	43.7	0.05
0	879	43.8	0.05
0	881	43.9	0.05
0	883	44	0.05
0	884	44.026774816	0.05
0	885	44.1	0.05
0	887	44.2	0.05
0	889	44.3	0.05
0	891	44.4	0.05
0	893	44.5	0.05
0	894	44.546463925	0.05
0	895	44.6	0.05
0	897	44.7	0.05
0	899	44.8	0.05
0	901	44.9	0.05
0	903	45	0.05
0	904	45.039249421	0.05
0	905	45.1	0.05
0	907	45.2	0.05
0	909	45.3	0.05
0	911	45.4	0.05
0	912	45.445283074	0.05
0	913	45.5	0.05
0	915	45.6	0.05
0	917	45.7	0.05
0	919	45.8	0.05
0	921	45.9	0.05
0	922	45.976808704	0.05
0	923	46	0.05
0	925	46.1	0.05
0	927	46.2	0.05
0	929	46.3	0.05
0	930	46.399548163	0.05
0	931	46.4	0.05
0	933	46.5	0.05
0	935	46.6	0.05
0	936	46.680069013	0.05
0	937	46.7	0.05
0	939	46.8	0.05
0	941	46.9	0.05
0	942	46.964048941	0.05
0	944	47	0.05
0	946	47.1	0.05
0	948	47.2	0.05
0	949	47.20944877	0.05
0	950	47.3	0.05
0	952	47.4	0.05
0	954	47.5	0.05
0	956	47.6	0.05
0	957	47.642260363	0.05
0	958	47.7	0.05
0	960	47.8	0.05
0	962	47.9	0.05
0	964	48	0.05
0	965	48.077466658	0.05
0	966	48.1	0.05
0	968	48.2	0.05
0	970	48.3	0.0495
0	970	48.3	0.0495
0	971	48.370917829	0.0495
0	972	48.4	0.0495
0	974	48.5	0.0495
0	976	48.6	0.0495
0	978	48.7	0.0495
0	980	48.8	0.0495
0	981	48.818671012	0.0495
0	982	48.9	0.0495
0	984	49	0.0495
0	986	49.1	0.0495
0	988	49.2	0.0495
0	990	49.3	0.0495
0	991	49.313298928	0.0495
0	992	49.4	0.0495
0	994	49.5	0.0495
0	996	49.6	0.0495
0	997	49.602593323	0.049005
0	997	49.602593323	0.049005
0	998	49.7	0.049005
0	1000	49.8	0.049005
0	1002	49.9	0.049005
0	1004	50	0.049005
0	1006	50.1	0.049005
0	1007	50.126613475	0.049005
0	1008	50.2	0.049005
0	1010	50.3	0.049005
0	1012	50.4	0.049005
0	1014	50.5	0.049005
0	1016	50.6	0.049005
0	1017	50.633799304	0.049005
0	1019	50.7	0.049005
0	1021	50.8	0.049005
0	1023	50.9	0.049005
0	1025	51	0.049005
0	1026	51.099097216	0.049005
0	1027	51.1	0.049005
0	1029	51.2	0.049005
0	1031	51.3	0.049005
0	1032	51.386694526	0.049005
0	1033	51.4	0.049005
0	1035	51.5	0.049005
0	1037	51.6	0.049005
0	1039	51.7	0.049005
0	1041	51.8	0.049005
0	1043	51.9	0.049005
0	1043	51.933256549	0.049005
0	1045	52	0.049005
0	1047	52.1	0.049005
0	1049	52.2	0.049005
0	1051	52.3	0.049005
0	1053	52.4	0.049005
0	1053	52.408052917	0.04851495
0	1053	52.408052917	0.04851495
0	1055	52.5	0.04851495
0	1057	52.6	0.04851495
0	1059	52.7	0.04851495
0	1061	52.8	0.04851495
0	1063	52.9	0.04851495
0	1063	52.965747298	0.04851495
0	1065	53	0.04851495
0	1067	53.1	0.04851495
0	1069	53.2	0.04851495
0	1069	53.251976248	0.04851495
0	1071	53.3	0.04851495
0	1073	53.4	0.04851495
0	1075	53.5	0.04851495
0	1077	53.6	0.04851495
0	1079	53.7	0.04851495
0	1081	53.8	0.04851495
0	1083	53.9	0.04851495
0	1083	53.931542053	0.04851495
0	1085	54	0.04851495
0	1087	54.1	0.04851495
0	1089	54.2	0.04851495
0	1091	54.3	0.04851495
0	1091	54.3215641	0.04851495
0	1093	54.4	0.04851495
0	1095	54.5	0.04851495
0	1097	54.6	0.04851495
0	1099	54.7	0.04851495
0	1100	54.7877665	0.04851495
0	1101	54.8	0.04851495
0	1103	54.9	0.04851495
0	1105	55	0.04851495
0	1107	55.1	0.04851495
0	1109	55.2	0.04851495
0	1111	55.3	0.04851495
0	1111	55.301529931	0.04851495
0	1113	55.4	0.04851495
0	1115	55.5	0.04851495
0	1117	55.6	0.04851495
0	1119	55.7	0.04851495
0	1121	55.8	0.04851495
0	1123	55.9	0.04851495
0	1124	55.998958744	0.04851495
0	1125	56	0.04851495
0	1127	56.1	0.04851495
0	1129	56.2	0.04851495
0	1131	56.3	0.04851495
0	1133	56.4	0.04851495
0	1135	56.5	0.04851495
0	1137	56.6	0.04851495
0	1137	56.610376681	0.04851495
0	1139	56.7	0.04851495
0	1140	56.769634267061	0.04851495
0	1142	56.869634267061	0.04851495
0	1144	56.969634267061	0.04851495
0	1146	57.069634267061	0.04851495
0	1148	57.169634267061	0.04851495
0	1149	57.20491654	0.04851495
0	1150	57.269634267061	0.04851495
0	1152	57.369634267061	0.04851495
0	1154	57.469634267061	0.04851495
0	1156	57.569634267061	0.04851495
0	1158	57.629346702579	0.04851495
0	1159	57.669634267061	0.048676100257928
0	1160	57.741364342	0.048963020557684
0	1161	57.750609202579	0.049
0	1162	57.769634267061	0.049076100257928
0	1164	57.869634267061	0.049476100257928
0	1165	57.875609202579	0.0495
0	1167	57.969634267061	0.049876100257928
0	1169	58.000609202579	0.05
0	1170	58.069634267061	0.05
0	1172	58.169634267061	0.05
0	1173	58.263090982	0.05
0	1174	58.269634267061	0.05
0	1176	58.369634267061	0.05
0	1178	58.469634267061	0.05
0	1179	58.548794017	0.05
0	1180	58.569634267061	0.05
0	1182	58.669634267061	0.05
0	1184	58.769634267061	0.05
0	1186	58.869634267061	0.05
0	1188	58.969634267061	0.05
0	1189	59.069274679	0.05
0	1190	59.069634267061	0.05
0	1192	59.169634267061	0.05
0	1194	59.269634267061	0.05
0	1196	59.369634267061	0.0495
0	1196	59.369634267061	0.0495
0	1198	59.469634267061	0.0499
0	1199	59.561607454	0.05
0	1200	59.569634267061	0.05
0	1202	59.669634267061	0.05
0	1204	59.769634267061	0.05
0	1206	59.869634267061	0.05
0	1207	59.945080084	0.05
0	1208	59.969634267061	0.05
0	1210	60.069634267061	0.05
0	1212	60.169634267061	0.05
0	1214	60.269634267061	0.05
0	1216	60.369634267061	0.05
0	1217	60.403500961	0.05
0	1218	60.469634267061	0.05
0	1220	60.569634267061	0.05
0	1222	60.669634267061	0.05
0	1224	60.769634267061	0.0495
0	1224	60.769634267061	0.0495
0	1226	60.869634267061	0.0499
0	1228	60.969634267061	0.05
0	1229	61.014558448	0.05
0	1230	61.069634267061	0.05
0	1232	61.169634267061	0.05
0	1234	61.269634267061	0.05
0	1236	61.369634267061	0.05
0	1238	61.469634267061	0.05
0	1240	61.569634267061	0.05
0	1242	61.669634267061	0.05
0	1243	61.699034917	0.05
0	1244	61.769634267061	0.05
0	1246	61.869634267061	0.05
0	1248	61.969634267061	0.05
0	1250	62.069634267061	0.05
0	1252	62.169634267061	0.05
0	1253	62.212932196	0.0495
0	1253	62.212932196	0.0495
0	1254	62.269634267061	0.049726808284244
0	1256	62.369634267061	0.05
0	1258	62.469634267061	0.05
0	1260	62.569634267061	0.05
0	1262	62.669634267061	0.05
0	1263	62.763884014	0.05
0	1264	62.769634267061	0.05
0	1266	62.869634267061	0.05
0	1268	62.969634267061	0.05
0	1270	63.069634267061	0.05
0	1272	63.169634267061	0.05
0	1274	63.269634267061	0.05
0	1275	63.356398075	0.05
0	1276	63.369634267061	0.05
0	1278	63.469634267061	0.05
0	1280	63.569634267061	0.05
0	1282	63.669634267061	0.0495
0	1282	63.669634267061	0.0495
0	1284	63.769634267061	0.0499
0	1286	63.869634267061	0.05
0	1288	63.969634267061	0.05
0	1290	64.069634267061	0.05
0	1292	64.169634267061	0.05
0	1293	64.199002543	0.05
0	1294	64.269634267061	0.05
0	1296	64.369634267061	0.05
0	1298	64.469634267061	0.05
0	1300	64.569634267061	0.05
0	1301	64.66421593	0.05
0	1302	64.669634267061	0.05
0	1304	64.769634267061	0.05
0	1306	64.869634267061	0.05
0	1308	64.969634267061	0.05
0	1310	65.069634267061	0.05
0	1311	65.091920677	0.0495
0	1311	65.091920677	0.0495
0	1312	65.169634267061	0.049810854360244
0	1314	65.269634267061	0.05
0	1316	65.369634267061	0.05
0	1317	65.387668963	0.05
0	1318	65.469634267061	0.05
0	1320	65.569634267061	0.05
0	1322	65.669634267061	0.05
0	1324	65.769634267061	0.05
0	1325	65.836773325	0.05
0	1326	65.869634267061	0.05
0	1328	65.969634267061	0.05
0	1330	66.069634267061	0.05
0	1332	66.169634267061	0.05
0	1334	66.269634267061	0.05
0	1334	66.279231712	0.05
0	1336	66.369634267061	0.05
0	1338	66.469634267061	0.0495
0	1338	66.469634267061	0.0495
0	1340	66.569634267061	0.0499
0	1342	66.669634267061	0.05
0	1344	66.769634267061	0.05
0	1345	66.806772421	0.05
0	1346	66.869634267061	0.05
0	1348	66.969634267061	0.05
0	1350	67.069634267061	0.05
0	1352	67.169634267061	0.05
0	1354	67.269634267061	0.05
0	1355	67.32921013	0.05
0	1356	67.369634267061	0.05
0	1358	67.469634267061	0.05
0	1360	67.569634267061	0.05
0	1361	67.609292536	0.05
0	1362	67.669634267061	0.05
0	1364	67.769634267061	0.05
0	1366	67.869634267061	0.0495
0	1366	67.869634267061	0.0495
0	1368	67.969634267061	0.0499
0	1370	68.069634267061	0.05
0	1370	68.08419715	0.05
0	1372	68.169634267061	0.05
0	1374	68.269634267061	0.05
0	1376	68.369634267061	0.05
0	1378	68.469634267061	0.05
0	1380	68.569634267061	0.05
0	1381	68.590805713	0.05
0	1382	68.669634267061	0.05
0	1384	68.769634267061	0.05
0	1386	68.869634267061	0.05
0	1388	68.969634267061	0.05
0	1389	68.979132871325	0.05
0	1391	69.069634267061	0.05
0	1392	69.099141895	0.05
0	1393	69.169634267061	0.05
0	1395	69.269634267061	0.05
0	1397	69.369634267061	0.05
0	1399	69.469634267061	0.05
0	1401	69.569634267061	0.05
0	1401	69.581224348	0.05
0	1403	69.669634267061	0.05
0	1405	69.769634267061	0.05
0	1407	69.869634267061	0.05
0	1409	69.969634267061	0.05
0	1410	69.989348935	0.05
0	1411	70.069634267061	0.05
0	1413	70.169634267061	0.05
0	1415	70.269634267061	0.05
0	1417	70.369634267061	0.05
0	1419	70.469634267061	0.05
0	1420	70.48917859	0.05
0	1421	70.569634267061	0.05
0	1423	70.669634267061	0.05
0	1425	70.769634267061	0.05
0	1427	70.869634267061	0.05
0	1428	70.930500373	0.05
0	1429	70.969634267061	0.05
0	1431	71.069634267061	0.05
0	1433	71.169634267061	0.05
0	1435	71.269634267061	0.05
0	1437	71.369634267061	0.05
0	1439	71.469634267061	0.05
0	1440	71.51877973	0.05
0	1441	71.569634267061	0.05
0	1443	71.669634267061	0.05
0	1445	71.769634267061	0.05
0	1447	71.869634267061	0.05
0	1449	71.969634267061	0.05
0	1451	72.069634267061	0.05
0	1452	72.164517673	0.05
0	1453	72.169634267061	0.05
0	1455	72.269634267061	0.05
0	1457	72.369634267061	0.05
0	1459	72.469634267061	0.05
0	1461	72.569634267061	0.05
0	1463	72.669634267061	0.05
0	1465	72.769634267061	0.05
0	1466	72.837117982	0.05
0	1467	72.869634267061	0.05
0	1469	72.969634267061	0.05
0	1471	73.069634267061	0.05
0	1473	73.169634267061	0.05
0	1475	73.269634267061	0.05
0	1477	73.369634267061	0.05
0	1478	73.418633161	0.05
0	1479	73.469634267061	0.05
0	1481	73.569634267061	0.05
0	1483	73.669634267061	0.05
0	1485	73.769634267061	0.05
0	1486	73.843283227	0.05
0	1487	73.869634267061	0.05
0	1489	73.969634267061	0.05
0	1491	74.069634267061	0.05
0	1493	74.169634267061	0.05
0	1496	74.269634267061	0.05
0	1498	74.322117322	0.05
0	1499	74.369634267061	0.05
0	1502	74.469634267061	0.05
0	1505	74.569634267061	0.05
0	1508	74.669634267061	0.05
0	1510	74.769634267061	0.0495
0	1510	74.769634267061	0.0495
0	1510	74.774542966	0.0495
0	1513	74.869634267061	0.0495
0	1516	74.969634267061	0.0495
0	1519	75.069634267061	0.0495
0	1520	75.164993263	0.0495
0	1522	75.169634267061	0.0495
0	1524	75.269634267061	0.0495
0	1527	75.369634267061	0.0495
0	1530	75.469634267061	0.0495
0	1532	75.569634267061	0.0495
0	1533	75.647383387	0.0495
0	1534	75.669634267061	0.0495
0	1536	75.769634267061	0.0495
0	1538	75.869634267061	0.049005
0	1538	75.869634267061	0.049005
0	1540	75.969634267061	0.049005
0	1541	76.069514116	0.049005
0	1542	76.069634267061	0.049005
0	1544	76.169634267061	0.049005
0	1546	76.269634267061	0.049005
0	1548	76.369634267061	0.049005
0	1550	76.469634267061	0.049005
0	1551	76.545173404	0.049005
0	1552	76.569634267061	0.049005
0	1554	76.669634267061	0.049005
0	1556	76.769634267061	0.049005
0	1558	76.869634267061	0.049005
0	1560	76.969634267061	0.049005
0	1562	77.069634267061	0.049005
0	1562	77.078209447	0.049005
0	1564	77.169634267061	0.049005
0	1566	77.269634267061	0.04851495
0	1566	77.269634267061	0.04851495
0	1568	77.369634267061	0.04851495
0	1570	77.469634267061	0.04851495
0	1572	77.569634267061	0.04851495
0	1573	77.611246105	0.04851495
0	1574	77.669634267061	0.04851495
0	1576	77.769634267061	0.04851495
0	1578	77.869634267061	0.04851495
0	1578	77.881929286	0.04851495
0	1580	77.969634267061	0.04851495
0	1582	78.069634267061	0.04851495
0	1584	78.169634267061	0.04851495
0	1586	78.269634267061	0.04851495
0	1588	78.369634267061	0.04851495
0	1589	78.417904162	0.04851495
0	1590	78.469634267061	0.04851495
0	1592	78.569634267061	0.04851495
0	1594	78.669634267061	0.0480298005
0	1594	78.669634267061	0.0480298005
0	1596	78.769634267061	0.0480298005
0	1597	78.848752765	0.0480298005
0	1598	78.869634267061	0.0480298005
0	1600	78.969634267061	0.0480298005
0	1602	79.069634267061	0.0480298005
0	1604	79.169634267061	0.0480298005
0	1606	79.269634267061	0.0480298005
0	1607	79.369331764	0.0480298005
0	1608	79.369634267061	0.0480298005
0	1610	79.469634267061	0.0480298005
0	1612	79.569634267061	0.0480298005
0	1614	79.669634267061	0.0480298005
0	1616	79.769634267061	0.0480298005
0	1618	79.869634267061	0.0480298005
0	1619	79.943652094	0.0480298005
0	1620	79.969634267061	0.0480298005
0	1622	80.069634267061	0.047549502495
0	1622	80.069634267061	0.047549502495
0	1624	80.169634267061	0.047549502495
0	1626	80.269634267061	0.047549502495
0	1628	80.369634267061	0.047549502495
0	1630	80.469634267061	0.047549502495
0	1632	80.569634267061	0.047549502495
0	1634	80.669634267061	0.047549502495
0	1636	80.769634267061	0.047549502495
0	1638	80.869634267061	0.047549502495
0	1639	80.937644194	0.047549502495
0	1640	80.969634267061	0.047549502495
0	1642	81.069634267061	0.047549502495
0	1644	81.169634267061	0.047549502495
0	1646	81.269634267061	0.047549502495
0	1648	81.369634267061	0.047549502495
0	1650	81.469634267061	0.047549502495
0	1651	81.527337607	0.047549502495
0	1652	81.569634267061	0.04707400747005
0	1652	81.569634267061	0.04707400747005
0	1654	81.669634267061	0.04707400747005
0	1656	81.769634267061	0.04707400747005
0	1658	81.869634267061	0.04707400747005
0	1660	81.969634267061	0.04707400747005
0	1660	81.977910562	0.04707400747005
0	1662	82.069634267061	0.04707400747005
0	1664	82.169634267061	0.04707400747005
0	1666	82.269634267061	0.04707400747005
0	1668	82.369634267061	0.04707400747005
0	1670	82.469634267061	0.04707400747005
0	1671	82.514324116	0.04707400747005
0	1672	82.569634267061	0.04707400747005
0	1674	82.669634267061	0.04707400747005
0	1676	82.769634267061	0.04707400747005
0	1678	82.869634267061	0.04707400747005
0	1680	82.969634267061	0.04707400747005
0	1681	83.000505028	0.04660326739535
0	1681	83.000505028	0.04660326739535
0	1682	83.069634267061	0.04660326739535
0	1684	83.169634267061	0.04660326739535
0	1686	83.269634267061	0.04660326739535
0	1687	83.301005671	0.04660326739535
0	1688	83.369634267061	0.04660326739535
0	1690	83.469634267061	0.04660326739535
0	1692	83.569634267061	0.04660326739535
0	1693	83.589425998	0.04660326739535
0	1694	83.669634267061	0.04660326739535
0	1696	83.769634267061	0.04660326739535
0	1697	83.83797523	0.04660326739535
0	1698	83.869634267061	0.04660326739535
0	1700	83.969634267061	0.04660326739535
0	1702	84.069634267061	0.04660326739535
0	1704	84.169634267061	0.04660326739535
0	1706	84.269634267061	0.04660326739535
0	1708	84.365976082	0.04660326739535
0	1709	84.369634267061	0.04660326739535
0	1711	84.469634267061	0.04660326739535
0	1713	84.569634267061	0.04660326739535
0	1715	84.669634267061	0.04660326739535
0	1716	84.756703006	0.04660326739535
0	1717	84.769634267061	0.04660326739535
0	1719	84.869634267061	0.04660326739535
0	1721	84.969634267061	0.04660326739535
0	1722	85.01074588	0.04660326739535
0	1723	85.069634267061	0.04660326739535
0	1725	85.169634267061	0.04660326739535
0	1727	85.269634267061	0.04660326739535
0	1729	85.369634267061	0.04660326739535
0	1730	85.454980057	0.04660326739535
0	1731	85.469634267061	0.04660326739535
0	1733	85.569634267061	0.04660326739535
0	1735	85.669634267061	0.04660326739535
0	1737	85.769634267061	0.04660326739535
0	1739	85.869634267061	0.04660326739535
0	1741	85.905675680204	0.04660326739535
0	1741	85.929474967	0.046698464542534
0	1742	85.969634267061	0.046859101742778
0	1744	86.004858831367	0.047
0	1745	86.069634267061	0.047259101742776
0	1747	86.129858831367	0.0475
0	1748	86.169634267061	0.047659101742776
0	1749	86.206637059	0.047807112910532
0	1750	86.254858831367	0.048
0	1751	86.269634267061	0.048059101742776
0	1753	86.369634267061	0.048459101742776
0	1754	86.379858831367	0.0485
0	1756	86.469634267061	0.048859101742776
0	1758	86.504858831367	0.049
0	1759	86.569634267061	0.049259101742776
0	1761	86.629858831367	0.0495
0	1762	86.669634267061	0.049659101742776
0	1763	86.719084936	0.049358335374347
0	1763	86.719084936	0.049358335374347
0	1764	86.754858831367	0.05
0	1765	86.769634267061	0.05
0	1767	86.869634267061	0.05
0	1769	86.969634267061	0.05
0	1771	87.069634267061	0.05
0	1773	87.169634267061	0.05
0	1774	87.199580293	0.05
0	1775	87.269634267061	0.05
0	1777	87.369634267061	0.05
0	1778	87.464899036	0.05
0	1779	87.469634267061	0.05
0	1781	87.569634267061	0.05
0	1783	87.669634267061	0.05
0	1785	87.769634267061	0.05
0	1787	87.869634267061	0.05
0	1788	87.90612943	0.05
0	1789	87.969634267061	0.05
0	1791	88.069634267061	0.05
0	1793	88.169634267061	0.05
0	1794	88.204008208	0.05
0	1795	88.269634267061	0.05
0	1797	88.369634267061	0.05
0	1799	88.469634267061	0.05
0	1801	88.569634267061	0.05
0	1802	88.631247436	0.05
0	1803	88.669634267061	0.05
0	1805	88.769634267061	0.05
0	1807	88.788246276676	0.05
0	1808	88.869634267061	0.05
0	1809	88.927806865	0.05
0	1810	88.969634267061	0.05
0	1812	89.069634267061	0.05
0	1814	89.169634267061	0.05
0	1816	89.269634267061	0.05
0	1818	89.369634267061	0.0495
0	1818	89.369634267061	0.0495
0	1819	89.389889833	0.0495
0	1820	89.469634267061	0.0495
0	1822	89.569634267061	0.0495
0	1824	89.669634267061	0.0495
0	1826	89.769634267061	0.0495
0	1827	89.800551898	0.0495
0	1828	89.869634267061	0.0495
0	1830	89.969634267061	0.0495
0	1832	90.069634267061	0.0495
0	1834	90.169634267061	0.0495
0	1836	90.269634267061	0.0495
0	1837	90.294127534	0.0495
0	1838	90.369634267061	0.0495
0	1840	90.469634267061	0.0495
0	1842	90.523395559188	0.0495
0	1844	90.623395559188	0.0495
0	1846	90.723395559188	0.049005
0	1846	90.723395559188	0.049005
0	1848	90.823395559188	0.049005
0	1848	90.834662758	0.049005
0	1850	90.923395559188	0.049005
0	1852	91.023395559188	0.049005
0	1854	91.123395559188	0.049005
0	1855	91.215995659	0.049005
0	1856	91.223395559188	0.049005
0	1858	91.323395559188	0.049005
0	1860	91.423395559188	0.049005
0	1861	91.498340236	0.049005
0	1862	91.523395559188	0.049005
0	1864	91.623395559188	0.049005
0	1866	91.723395559188	0.049005
0	1868	91.823395559188	0.049005
0	1870	91.923395559188	0.049005
0	1870	91.964400775	0.049005
0	1872	92.023395559188	0.04851495
0	1872	92.023395559188	0.04851495
0	1874	92.123395559188	0.04851495
0	1876	92.223395559188	0.04851495
0	1878	92.323395559188	0.04851495
0	1880	92.423395559188	0.04851495
0	1881	92.514019978	0.04851495
0	1882	92.523395559188	0.04851495
0	1884	92.623395559188	0.04851495
0	1886	92.723395559188	0.04851495
0	1888	92.823395559188	0.04851495
0	1890	92.923395559188	0.04851495
0	1892	93.023395559188	0.04851495
0	1893	93.104498272	0.04851495
0	1894	93.123395559188	0.04851495
0	1896	93.223395559188	0.04851495
0	1898	93.323395559188	0.04851495
0	1900	93.423395559188	0.04851495
0	1902	93.523395559188	0.0480298005
0	1902	93.523395559188	0.0480298005
0	1904	93.623395559188	0.0480298005
0	1906	93.723395559188	0.0480298005
0	1906	93.755249902	0.0480298005
0	1908	93.823395559188	0.0480298005
0	1910	93.923395559188	0.0480298005
0	1912	94.023395559188	0.0480298005
0	1914	94.123395559188	0.0480298005
0	1916	94.223395559188	0.0480298005
0	1918	94.323395559188	0.0480298005
0	1918	94.355285053	0.0480298005
0	1920	94.423395559188	0.0480298005
0	1922	94.523395559188	0.0480298005
0	1924	94.623395559188	0.0480298005
0	1926	94.723395559188	0.0480298005
0	1928	94.823395559188	0.0480298005
0	1928	94.870379878	0.0480298005
0	1930	94.923395559188	0.047549502495
0	1930	94.923395559188	0.047549502495
0	1932	95.023395559188	0.047549502495
0	1934	95.123395559188	0.047549502495
0	1936	95.223395559188	0.047549502495
0	1937	95.320185529	0.047549502495
0	1938	95.323395559188	0.047549502495
0	1940	95.423395559188	0.047549502495
0	1942	95.523395559188	0.047549502495
0	1944	95.623395559188	0.047549502495
0	1946	95.723395559188	0.047549502495
0	1946	95.766286858	0.047549502495
0	1948	95.823395559188	0.047549502495
0	1950	95.923395559188	0.047549502495
0	1952	96.023395559188	0.047549502495
0	1954	96.123395559188	0.047549502495
0	1956	96.223395559188	0.047549502495
0	1956	96.246791656	0.047549502495
0	1958	96.323395559188	0.04707400747005
0	1958	96.323395559188	0.04707400747005
0	1960	96.423395559188	0.04707400747005
0	1962	96.523395559188	0.04707400747005
0	1964	96.623395559188	0.04707400747005
0	1965	96.626948037541	0.04707400747005
0	1966	96.69038779	0.04707400747005
0	1967	96.726948037541	0.04707400747005
0	1969	96.826948037541	0.04707400747005
0	1971	96.926948037541	0.04707400747005
0	1973	97.026948037541	0.04707400747005
0	1975	97.126948037541	0.04707400747005
0	1975	97.139876449	0.04707400747005
0	1977	97.226948037541	0.04707400747005
0	1979	97.326948037541	0.04707400747005
0	1981	97.426948037541	0.04707400747005
0	1983	97.526948037541	0.04707400747005
0	1983	97.57786303	0.04707400747005
0	1985	97.626948037541	0.04707400747005
0	1987	97.726948037541	0.04707400747005
0	1989	97.826948037541	0.04707400747005
0	1991	97.926948037541	0.04707400747005
0	1993	98.026948037541	0.04707400747005
0	1994	98.08945423	0.04707400747005
0	1995	98.126948037541	0.04707400747005
0	1997	98.226948037541	0.04707400747005
0	1999	98.326948037541	0.04707400747005
0	1999	98.378539114	0.04707400747005
0	2001	98.426948037541	0.04707400747005
0	2003	98.526948037541	0.04707400747005
0	2005	98.626948037541	0.04707400747005
0	2007	98.726948037541	0.04707400747005
0	2009	98.826948037541	0.04707400747005
0	2011	98.926948037541	0.04707400747005
0	2011	98.979548815	0.04707400747005
0	2013	99.026948037541	0.04707400747005
0	2015	99.126948037541	0.04707400747005
0	2017	99.226948037541	0.04707400747005
0	2019	99.326948037541	0.04707400747005
0	2022	99.426948037541	0.04707400747005
0	2022	99.482535202	0.04707400747005
0	2025	99.526948037541	0.04707400747005
0	2027	99.626948037541	0.04707400747005
0	2030	99.726948037541	0.04707400747005
0	2033	99.826948037541	0.04707400747005
0	2036	99.926948037541	0.04707400747005
0	2036	99.955408669	0.04707400747005
0	2039	100.026948037541	0.04707400747005
0	2041	100.126948037541	0.04707400747005
0	2043	100.226948037541	0.04707400747005
0	2045	100.326948037541	0.04707400747005
0	2046	100.417011448	0.04707400747005
0	2047	100.426948037541	0.04707400747005
0	2049	100.526948037541	0.04707400747005
0	2050	100.552358181889	0.04707400747005
0	2052	100.626948037541	0.047372366892658
0	2053	100.658856314376	0.0475
0	2055	100.726948037541	0.04777236689266
0	2056	100.783856314376	0.048
0	2058	100.826948037541	0.04817236689266
0	2058	100.828049017	0.048176770810496
0	2060	100.908856314376	0.0485
0	2061	100.926948037541	0.04857236689266
0	2063	101.026948037541	0.04897236689266
0	2064	101.033856314376	0.049
0	2066	101.126948037541	0.04937236689266
0	2067	101.158856314376	0.0495
0	2069	101.226948037541	0.04977236689266
0	2070	101.283856314376	0.05
0	2071	101.322090166	0.05
0	2072	101.326948037541	0.0495
0	2072	101.326948037541	0.0495
0	2074	101.426948037541	0.0499
0	2076	101.526948037541	0.05
0	2078	101.626948037541	0.05
0	2080	101.726948037541	0.05
0	2082	101.826948037541	0.05
0	2082	101.834619655	0.05
0	2084	101.926948037541	0.05
0	2086	102.026948037541	0.05
0	2087	102.105419851	0.05
0	2088	102.126948037541	0.05
0	2090	102.226948037541	0.05
0	2092	102.326948037541	0.05
0	2094	102.426948037541	0.05
0	2096	102.526948037541	0.05
0	2098	102.626948037541	0.05
0	2100	102.697790013057	0.05
0	2100	102.718310992	0.05
0	2102	102.797790013057	0.05
0	2104	102.897790013057	0.05
0	2106	102.997790013057	0.05
0	2108	103.097790013057	0.05
0	2109	103.193867722	0.05
0	2110	103.197790013057	0.05
0	2112	103.297790013057	0.05
0	2114	103.397790013057	0.05
0	2116	103.497790013057	0.05
0	2118	103.597790013057	0.05
0	2118	103.640360212	0.05
0	2120	103.697790013057	0.05
0	2122	103.797790013057	0.05
0	2124	103.897790013057	0.05
0	2126	103.997790013057	0.05
0	2126	104.082726712	0.05
0	2128	104.097790013057	0.0495
0	2128	104.097790013057	0.0495
0	2130	104.197790013057	0.0499
0	2132	104.297790013057	0.05
0	2134	104.397790013057	0.05
0	2136	104.497790013057	0.05
0	2136	104.568404104	0.05
0	2138	104.597790013057	0.05
0	2140	104.697790013057	0.05
0	2142	104.797790013057	0.05
0	2144	104.897790013057	0.05
0	2146	104.997790013057	0.05
0	2147	105.06160282	0.05
0	2149	105.097790013057	0.05
0	2151	105.197790013057	0.05
0	2153	105.297790013057	0.05
0	2155	105.397790013057	0.05
0	2157	105.497790013057	0.05
0	2158	105.59078146	0.05
0	2159	105.597790013057	0.05
0	2161	105.697790013057	0.05
0	2163	105.797790013057	0.05
0	2165	105.897790013057	0.05
0	2167	105.997790013057	0.05
0	2168	106.075954729	0.05
0	2169	106.097790013057	0.05
0	2171	106.197790013057	0.05
0	2173	106.297790013057	0.05
0	2175	106.397790013057	0.05
0	2177	106.497790013057	0.05
0	2179	106.597790013057	0.05
0	2179	106.628616256	0.05
0	2181	106.697790013057	0.05
0	2183	106.797790013057	0.05
0	2185	106.897790013057	0.05
0	2187	106.997790013057	0.05
0	2188	107.078403418	0.05
0	2189	107.097790013057	0.05
0	2191	107.197790013057	0.05
0	2193	107.297790013057	0.05
0	2195	107.397790013057	0.05
0	2197	107.497790013057	0.05
0	2199	107.597790013057	0.05
0	2200	107.671737925	0.05
0	2201	107.697790013057	0.05
0	2203	107.797790013057	0.05
0	2205	107.897790013057	0.05
0	2207	107.997790013057	0.05
0	2209	108.097790013057	0.05
0	2211	108.197790013057	0.05
0	2211	108.24313084	0.05
0	2213	108.281146962633	0.05
0	2214	108.297790013057	0.0495
0	2214	108.297790013057	0.0495
0	2216	108.397790013057	0.0495
0	2218	108.497790013057	0.0495
0	2220	108.597790013057	0.0495
0	2222	108.697790013057	0.0495
0	2224	108.797790013057	0.0495
0	2225	108.887439682	0.0495
0	2226	108.897790013057	0.0495
0	2228	108.997790013057	0.0495
0	2230	109.097790013057	0.0495
0	2232	109.197790013057	0.0495
0	2234	109.297790013057	0.0495
0	2236	109.397790013057	0.0495
0	2236	109.410818173	0.0495
0	2238	109.497790013057	0.0495
0	2240	109.597790013057	0.0495
0	2242	109.697790013057	0.0495
0	2244	109.797790013057	0.049005
0	2244	109.797790013057	0.049005
0	2246	109.897790013057	0.049005
0	2246	109.937657497	0.049005
0	2248	109.997790013057	0.049005
0	2250	110.097790013057	0.049005
0	2252	110.197790013057	0.049005
0	2253	110.237680659675	0.049005
0	2255	110.297790013057	0.049245437413528
0	2256	110.361430659675	0.0495
0	2258	110.397790013057	0.049645437413528
0	2258	110.429897149	0.0497738659573
0	2260	110.486430659675	0.05
0	2261	110.497790013057	0.05
0	2263	110.597790013057	0.05
0	2265	110.697790013057	0.05
0	2267	110.797790013057	0.05
0	2268	110.870520604	0.05
0	2269	110.897790013057	0.05
0	2271	110.997790013057	0.05
0	2273	111.097790013057	0.05
0	2275	111.197790013057	0.05
0	2277	111.297790013057	0.05
0	2278	111.36854341	0.05
0	2279	111.397790013057	0.05
0	2281	111.497790013057	0.05
0	2283	111.580274386855	0.05
0	2284	111.615796468	0.05
0	2285	111.680274386855	0.05
0	2287	111.780274386855	0.05
0	2289	111.880274386855	0.05
0	2291	111.980274386855	0.05
0	2292	112.063466395	0.05
0	2293	112.080274386855	0.05
0	2295	112.180274386855	0.05
0	2297	112.280274386855	0.05
0	2299	112.380274386855	0.05
0	2301	112.480274386855	0.05
0	2301	112.508170024	0.05
0	2303	112.580274386855	0.05
0	2305	112.680274386855	0.05
0	2307	112.780274386855	0.05
0	2309	112.880274386855	0.05
0	2310	112.936193122	0.05
0	2311	112.980274386855	0.05
0	2313	113.080274386855	0.05
0	2315	113.180274386855	0.05
0	2317	113.280274386855	0.05
0	2319	113.380274386855	0.05
0	2321	113.480274386855	0.05
0	2321	113.493544303	0.05
0	2323	113.580274386855	0.05
0	2325	113.680274386855	0.05
0	2327	113.780274386855	0.05
0	2329	113.880274386855	0.05
0	2331	113.980274386855	0.05
0	2333	114.080274386855	0.05
0	2335	114.180274386855	0.05
0	2336	114.236365963	0.05
0	2337	114.280274386855	0.05
0	2339	114.380274386855	0.05
0	2341	114.480274386855	0.05
0	2343	114.580274386855	0.05
0	2345	114.680274386855	0.05
0	2347	114.780274386855	0.05
0	2347	114.793145575	0.05
0	2349	114.880274386855	0.05
0	2351	114.980274386855	0.05
0	2353	115.080274386855	0.05
0	2355	115.180274386855	0.05
0	2357	115.280274386855	0.05
0	2359	115.380274386855	0.05
0	2359	115.392390832	0.05
0	2361	115.480274386855	0.05
0	2363	115.580274386855	0.05
0	2365	115.680274386855	0.05
0	2367	115.780274386855	0.05
0	2369	115.880274386855	0.05
0	2370	115.91469124	0.05
0	2371	115.980274386855	0.05
0	2373	116.080274386855	0.05
0	2375	116.180274386855	0.05
0	2377	116.280274386855	0.05
0	2379	116.380274386855	0.05
0	2380	116.415988801	0.05
0	2381	116.444752743138	0.05
0	2382	116.480274386855	0.05
0	2384	116.580274386855	0.05
0	2386	116.680274386855	0.0495
0	2386	116.680274386855	0.0495
0	2388	116.780274386855	0.0495
0	2390	116.880274386855	0.0495
0	2392	116.980274386855	0.0495
0	2392	116.986104136	0.0495
0	2394	117.080274386855	0.0495
0	2396	117.180274386855	0.0495
0	2398	117.280274386855	0.0495
0	2400	117.380274386855	0.0495
0	2401	117.462771442	0.0495
0	2402	117.480274386855	0.0495
0	2404	117.580274386855	0.0495
0	2406	117.680274386855	0.0495
0	2407	117.739925386	0.0495
0	2408	117.76266505029	0.0495
0	2410	117.86266505029	0.0495
0	2412	117.96266505029	0.0495
0	2414	118.06266505029	0.049005
0	2414	118.06266505029	0.049005
0	2416	118.16266505029	0.049005
0	2418	118.26266505029	0.049005
0	2419	118.335838108	0.049005
0	2420	118.36266505029	0.049005
0	2422	118.46266505029	0.049005
0	2424	118.56266505029	0.049005
0	2426	118.66266505029	0.049005
0	2428	118.76266505029	0.049005
0	2429	118.848985621	0.049005
0	2430	118.86266505029	0.049005
0	2432	118.96266505029	0.049005
0	2434	119.06266505029	0.049005
0	2436	119.16266505029	0.049005
0	2438	119.26266505029	0.049005
0	2439	119.299371523	0.049005
0	2440	119.36266505029	0.049005
0	2442	119.46266505029	0.04851495
0	2442	119.46266505029	0.04851495
0	2444	119.56266505029	0.04851495
0	2444	119.582162449	0.04851495
0	2446	119.66266505029	0.04851495
0	2448	119.76266505029	0.04851495
0	2450	119.86266505029	0.04851495
0	2452	119.96266505029	0.04851495
0	2454	120.06266505029	0.04851495
0	2456	120.16266505029	0.04851495
0	2458	120.26266505029	0.04851495
0	2458	120.287539687	0.04851495
0	2460	120.36266505029	0.04851495
0	2462	120.46266505029	0.04851495
0	2464	120.56266505029	0.04851495
0	2466	120.66266505029	0.04851495
0	2468	120.76266505029	0.04851495
0	2470	120.86266505029	0.04851495
0	2472	120.96266505029	0.0480298005
0	2472	120.96266505029	0.0480298005
0	2472	120.967542661	0.0480298005
0	2474	121.06266505029	0.0480298005
0	2476	121.16266505029	0.0480298005
0	2478	121.26266505029	0.0480298005
0	2480	121.36266505029	0.0480298005
0	2482	121.46266505029	0.0480298005
0	2484	121.56266505029	0.0480298005
0	2484	121.583323258	0.0480298005
0	2486	121.66266505029	0.0480298005
0	2488	121.76266505029	0.0480298005
0	2490	121.86266505029	0.0480298005
0	2492	121.96266505029	0.0480298005
0	2493	122.029220428	0.0480298005
0	2494	122.06266505029	0.0480298005
0	2496	122.16266505029	0.0480298005
0	2498	122.26266505029	0.0480298005
0	2500	122.36266505029	0.047549502495
0	2500	122.36266505029	0.047549502495
0	2502	122.46266505029	0.047549502495
0	2504	122.56266505029	0.047549502495
0	2506	122.66266505029	0.047549502495
0	2508	122.76266505029	0.047549502495
0	2508	122.79541081	0.047549502495
0	2510	122.86266505029	0.047549502495
0	2513	122.96266505029	0.047549502495
0	2515	123.06266505029	0.047549502495
0	2517	123.16266505029	0.047549502495
0	2519	123.26266505029	0.047549502495
0	2521	123.36266505029	0.047549502495
0	2523	123.46266505029	0.047549502495
0	2523	123.505584592	0.047549502495
0	2525	123.56266505029	0.047549502495
0	2527	123.66266505029	0.047549502495
0	2529	123.76266505029	0.047549502495
0	2531	123.86266505029	0.047549502495
0	2533	123.96266505029	0.047549502495
0	2535	124.06266505029	0.047549502495
0	2537	124.16266505029	0.047549502495
0	2537	124.183379365	0.047549502495
0	2539	124.26266505029	0.047549502495
0	2541	124.36266505029	0.047549502495
0	2543	124.46266505029	0.047549502495
0	2545	124.56266505029	0.047549502495
0	2546	124.57641766123	0.047549502495
0	2549	124.67641766123	0.047549502495
0	2550	124.727595253	0.047549502495
0	2551	124.77641766123	0.047549502495
0	2553	124.87641766123	0.047549502495
0	2555	124.97641766123	0.047549502495
0	2557	125.07641766123	0.047549502495
0	2559	125.17641766123	0.047549502495
0	2561	125.27641766123	0.04707400747005
0	2561	125.27641766123	0.04707400747005
0	2561	125.321524291	0.04707400747005
0	2563	125.37641766123	0.04707400747005
0	2565	125.47641766123	0.04707400747005
0	2567	125.57641766123	0.04707400747005
0	2567	125.595196816	0.04707400747005
0	2569	125.67641766123	0.04707400747005
0	2571	125.77641766123	0.04707400747005
0	2572	125.873735827	0.04707400747005
0	2573	125.87641766123	0.04707400747005
0	2575	125.97641766123	0.04707400747005
0	2577	126.07641766123	0.04707400747005
0	2578	126.172224208	0.04707400747005
0	2579	126.17641766123	0.04707400747005
0	2581	126.27641766123	0.04707400747005
0	2583	126.37641766123	0.04707400747005
0	2585	126.47641766123	0.04707400747005
0	2587	126.57641766123	0.04660326739535
0	2587	126.57641766123	0.04660326739535
0	2589	126.67641766123	0.04660326739535
0	2590	126.722321863	0.04660326739535
0	2591	126.77641766123	0.04660326739535
0	2593	126.87641766123	0.04660326739535
0	2595	126.97641766123	0.04660326739535
0	2597	127.07641766123	0.04660326739535
0	2599	127.17641766123	0.04660326739535
0	2601	127.27641766123	0.04660326739535
0	2601	127.299524674	0.04660326739535
0	2603	127.37641766123	0.04660326739535
0	2605	127.47641766123	0.04660326739535
0	2607	127.57641766123	0.04660326739535
0	2609	127.67641766123	0.04660326739535
0	2610	127.761362638	0.04660326739535
0	2611	127.77641766123	0.04660326739535
0	2613	127.87641766123	0.04660326739535
0	2614	127.97621107	0.046137234721396
0	2614	127.97621107	0.046137234721396
0	2615	127.97641766123	0.046137234721396
0	2617	128.07641766123	0.046137234721396
0	2619	128.17641766123	0.046137234721396
0	2621	128.27641766123	0.046137234721396
0	2623	128.37641766123	0.046137234721396
0	2624	128.429795866	0.046137234721396
0	2625	128.47641766123	0.046137234721396
0	2627	128.57641766123	0.046137234721396
0	2629	128.67641766123	0.046137234721396
0	2631	128.77641766123	0.046137234721396
0	2632	128.857377685	0.046137234721396
0	2633	128.87641766123	0.046137234721396
0	2635	128.97641766123	0.046137234721396
0	2637	129.07641766123	0.046137234721396
0	2639	129.17641766123	0.046137234721396
0	2641	129.27641766123	0.046137234721396
0	2642	129.312661936	0.045675862374182
0	2642	129.312661936	0.045675862374182
0	2643	129.37641766123	0.045675862374182
0	2645	129.47641766123	0.045675862374182
0	2647	129.57641766123	0.045675862374182
0	2647	129.590319655	0.045675862374182
0	2649	129.67641766123	0.045675862374182
0	2651	129.77641766123	0.045675862374182
0	2653	129.813193623545	0.045675862374182
0	2655	129.913193623545	0.045675862374182
0	2657	130.013193623545	0.045675862374182
0	2659	130.113193623545	0.045675862374182
0	2659	130.158330979	0.045675862374182
0	2661	130.213193623545	0.045675862374182
0	2663	130.313193623545	0.045675862374182
0	2665	130.413193623545	0.045675862374182
0	2667	130.513193623545	0.045675862374182
0	2669	130.613193623545	0.045675862374182
0	2671	130.713193623545	0.04521910375044
0	2671	130.713193623545	0.04521910375044
0	2671	130.723317604	0.04521910375044
0	2673	130.813193623545	0.04521910375044
0	2675	130.913193623545	0.04521910375044
0	2675	130.978060249	0.04521910375044
0	2677	131.013193623545	0.04521910375044
0	2679	131.113193623545	0.04521910375044
0	2681	131.213193623545	0.04521910375044
0	2681	131.275502497	0.04521910375044
0	2683	131.313193623545	0.04521910375044
0	2685	131.413193623545	0.04521910375044
0	2687	131.513193623545	0.04521910375044
0	2689	131.613193623545	0.04521910375044
0	2691	131.713193623545	0.04521910375044
0	2691	131.729754799	0.04521910375044
0	2693	131.813193623545	0.04521910375044
0	2695	131.913193623545	0.04521910375044
0	2697	132.013193623545	0.044766912712936
0	2697	132.013193623545	0.044766912712936
0	2699	132.113193623545	0.044766912712936
0	2701	132.213193623545	0.044766912712936
0	2701	132.299649931	0.044766912712936
0	2703	132.313193623545	0.044766912712936
0	2705	132.413193623545	0.044766912712936
0	2707	132.513193623545	0.044766912712936
0	2707	132.58919377	0.044766912712936
0	2709	132.613193623545	0.044766912712936
0	2711	132.713193623545	0.044766912712936
0	2713	132.813193623545	0.044766912712936
0	2716	132.913193623545	0.044766912712936
0	2718	133.013193623545	0.044766912712936
0	2719	133.097904415	0.044766912712936
0	2720	133.113193623545	0.044766912712936
0	2722	133.213193623545	0.044766912712936
0	2724	133.313193623545	0.044766912712936
0	2726	133.413193623545	0.044319243585806
0	2726	133.413193623545	0.044319243585806
0	2728	133.513193623545	0.044319243585806
0	2729	133.588639594	0.044319243585806
0	2730	133.613193623545	0.044319243585806
0	2732	133.713193623545	0.044319243585806
0	2734	133.813193623545	0.044319243585806
0	2736	133.913193623545	0.044319243585806
0	2738	134.013193623545	0.044319243585806
0	2739	134.07831838	0.044319243585806
0	2740	134.113193623545	0.044319243585806
0	2742	134.213193623545	0.044319243585806
0	2744	134.313193623545	0.044319243585806
0	2746	134.413193623545	0.044319243585806
0	2748	134.513193623545	0.044319243585806
0	2749	134.571391648	0.044319243585806
0	2750	134.613193623545	0.044319243585806
0	2752	134.713193623545	0.044319243585806
0	2754	134.813193623545	0.043876051149948
0	2754	134.813193623545	0.043876051149948
0	2754	134.831754376	0.043876051149948
0	2756	134.913193623545	0.043876051149948
0	2758	135.013193623545	0.043876051149948
0	2760	135.103886687562	0.043876051149948
0	2761	135.13927387083	0.043876051149948
0	2764	135.170261083343	0.044
0	2765	135.203886687562	0.044134502416876
0	2768	135.295261083343	0.0445
0	2769	135.303886687562	0.044534502416876
0	2769	135.311889928	0.044566515378628
0	2772	135.403886687562	0.044934502416876
0	2773	135.420261083343	0.045
0	2775	135.503886687562	0.045334502416876
0	2777	135.545261083343	0.0455
0	2779	135.603886687562	0.045734502416876
0	2782	135.670261083343	0.046
0	2783	135.703886687562	0.046134502416876
0	2785	135.784485157	0.046456896294628
0	2786	135.795261083343	0.0465
0	2787	135.803886687562	0.046534502416876
0	2790	135.903886687562	0.046934502416876
0	2791	135.920261083343	0.047
0	2793	136.003886687562	0.047334502416876
0	2795	136.045261083343	0.0475
0	2796	136.077894505	0.047630533686628
0	2797	136.103886687562	0.047734502416876
0	2800	136.170261083343	0.048
0	2801	136.203886687562	0.048134502416876
0	2803	136.295261083343	0.0485
0	2804	136.303886687562	0.048534502416876
0	2806	136.403886687562	0.048934502416876
0	2807	136.420261083343	0.049
0	2809	136.503886687562	0.049334502416876
0	2809	136.534447882	0.049456747194628
0	2810	136.545261083343	0.0495
0	2812	136.603886687562	0.049237157392707
0	2812	136.603886687562	0.049237157392707
0	2814	136.670261083343	0.05
0	2815	136.703886687562	0.05
0	2817	136.803886687562	0.05
0	2817	136.811587117	0.05
0	2819	136.903886687562	0.05
0	2821	137.003886687562	0.05
0	2823	137.103886687562	0.05
0	2825	137.203886687562	0.05
0	2827	137.303886687562	0.05
0	2828	137.380196632	0.05
0	2829	137.403886687562	0.05
0	2831	137.503886687562	0.05
0	2833	137.603886687562	0.05
0	2835	137.703886687562	0.05
0	2837	137.803886687562	0.05
0	2839	137.903886687562	0.05
0	2839	137.963853793	0.05
0	2841	138.003886687562	0.05
0	2843	138.103886687562	0.05
0	2845	138.203886687562	0.05
0	2847	138.303886687562	0.05
0	2849	138.403886687562	0.05
0	2850	138.434601938116	0.05
0	2852	138.503886687562	0.05
0	2853	138.587165128	0.05
0	2854	138.603886687562	0.05
0	2856	138.703886687562	0.05
0	2858	138.803886687562	0.05
0	2859	138.886596319	0.05
0	2860	138.903886687562	0.05
0	2862	139.003886687562	0.05
0	2864	139.103886687562	0.05
0	2866	139.203886687562	0.05
0	2868	139.303886687562	0.05
0	2868	139.363339687	0.05
0	2870	139.403886687562	0.05
0	2872	139.503886687562	0.05
0	2874	139.603886687562	0.05
0	2874	139.632030211	0.05
0	2876	139.703886687562	0.05
0	2878	139.803886687562	0.05
0	2880	139.903886687562	0.05
0	2882	140.003886687562	0.05
0	2883	140.086403551	0.05
0	2884	140.103886687562	0.05
0	2886	140.203886687562	0.05
0	2888	140.303886687562	0.05
0	2890	140.403886687562	0.05
0	2892	140.503886687562	0.05
0	2892	140.517774853	0.05
0	2894	140.603886687562	0.05
0	2896	140.703886687562	0.0495
0	2896	140.703886687562	0.0495
0	2898	140.803886687562	0.0495
0	2900	140.903886687562	0.0495
0	2900	140.96108122	0.0495
0	2902	140.999351134278	0.0495
0	2904	141.099351134278	0.0495
0	2906	141.199351134278	0.0495
0	2908	141.299351134278	0.0495
0	2910	141.399351134278	0.0495
0	2912	141.499351134278	0.0495
0	2912	141.522735391	0.0495
0	2914	141.599351134278	0.0495
0	2916	141.699351134278	0.0495
0	2918	141.799351134278	0.0495
0	2920	141.899351134278	0.0495
0	2922	141.999351134278	0.0495
0	2922	142.016219992	0.0495
0	2924	142.099351134278	0.049005
0	2924	142.099351134278	0.049005
0	2926	142.199351134278	0.049005
0	2928	142.299351134278	0.049005
0	2930	142.399351134278	0.049005
0	2931	142.480325014	0.049005
0	2932	142.499351134278	0.049005
0	2934	142.599351134278	0.049005
0	2936	142.699351134278	0.049005
0	2938	142.799351134278	0.049005
0	2939	142.883820049	0.049005
0	2940	142.899351134278	0.049005
0	2942	142.999351134278	0.049005
0	2944	143.099351134278	0.049005
0	2944	143.151670336	0.049005
0	2946	143.199351134278	0.049005
0	2948	143.299351134278	0.049005
0	2950	143.399351134278	0.049005
0	2952	143.499351134278	0.04851495
0	2952	143.499351134278	0.04851495
0	2954	143.599351134278	0.04851495
0	2955	143.692118848	0.04851495
0	2956	143.699351134278	0.04851495
0	2958	143.799351134278	0.04851495
0	2960	143.899351134278	0.04851495
0	2962	143.999351134278	0.04851495
0	2964	144.099351134278	0.04851495
0	2964	144.146667475	0.04851495
0	2966	144.199351134278	0.04851495
0	2968	144.299351134278	0.04851495
0	2970	144.399351134278	0.04851495
0	2972	144.499351134278	0.04851495
0	2974	144.599351134278	0.04851495
0	2976	144.699351134278	0.04851495
0	2976	144.760322257	0.04851495
0	2978	144.799351134278	0.04851495
0	2980	144.899351134278	0.0480298005
0	2980	144.899351134278	0.0480298005
0	2982	144.999351134278	0.0480298005
0	2984	145.099351134278	0.0480298005
0	2986	145.199351134278	0.0480298005
0	2988	145.299351134278	0.0480298005
0	2989	145.368756103	0.0480298005
0	2990	145.399351134278	0.0480298005
0	2992	145.499351134278	0.0480298005
0	2994	145.599351134278	0.0480298005
0	2996	145.699351134278	0.0480298005
0	2998	145.799351134278	0.0480298005
0	3000	145.899351134278	0.0480298005
0	3000	145.924134526	0.0480298005
0	3002	145.999351134278	0.0480298005
0	3004	146.099351134278	0.0480298005
0	3006	146.199351134278	0.0480298005
0	3008	146.299351134278	0.0480298005
0	3010	146.399351134278	0.047549502495
0	3010	146.399351134278	0.047549502495
0	3012	146.499351134278	0.047549502495
0	3012	146.52372277	0.047549502495
0	3014	146.599351134278	0.047549502495
0	3016	146.699351134278	0.047549502495
0	3018	146.799351134278	0.047549502495
0	3018	146.818281538	0.047549502495
0	3020	146.899351134278	0.047549502495
0	3022	146.999351134278	0.047549502495
0	3023	147.037420797985	0.047549502495
0	3025	147.137420797985	0.047549502495
0	3027	147.237420797985	0.047549502495
0	3027	147.24796402	0.047549502495
0	3029	147.337420797985	0.047549502495
0	3031	147.437420797985	0.047549502495
0	3033	147.537420797985	0.047549502495
0	3035	147.637420797985	0.047549502495
0	3036	147.710268229	0.047549502495
0	3037	147.737420797985	0.047549502495
0	3039	147.837420797985	0.047549502495
0	3041	147.937420797985	0.047549502495
0	3042	147.993155362	0.047549502495
0	3043	148.037420797985	0.047549502495
0	3045	148.137420797985	0.047549502495
0	3047	148.237420797985	0.047549502495
0	3049	148.337420797985	0.047549502495
0	3051	148.437420797985	0.047549502495
0	3052	148.510408153	0.047549502495
0	3053	148.537420797985	0.047549502495
0	3055	148.637420797985	0.047549502495
0	3057	148.737420797985	0.047549502495
0	3059	148.837420797985	0.047549502495
0	3060	148.93361437	0.047549502495
0	3061	148.937420797985	0.047549502495
0	3063	149.037420797985	0.047549502495
0	3065	149.137420797985	0.047549502495
0	3067	149.237420797985	0.047549502495
0	3069	149.337420797985	0.047549502495
0	3069	149.344800514	0.047549502495
0	3071	149.437420797985	0.047549502495
0	3073	149.537420797985	0.047549502495
0	3074	149.573681689	0.047549502495
0	3075	149.637420797985	0.047549502495
0	3077	149.737420797985	0.047549502495
0	3079	149.837420797985	0.047549502495
0	3081	149.937420797985	0.047549502495
0	3083	150.037420797985	0.047549502495
0	3084	150.114354925	0.047549502495
0	3085	150.137420797985	0.047549502495
0	3087	150.237420797985	0.047549502495
0	3089	150.337420797985	0.047549502495
0	3091	150.437420797985	0.047549502495
0	3093	150.537420797985	0.047549502495
0	3095	150.637420797985	0.047549502495
0	3097	150.737420797985	0.047549502495
0	3098	150.802012318	0.047549502495
0	3099	150.837420797985	0.047549502495
0	3101	150.937420797985	0.047549502495
0	3103	151.037420797985	0.047549502495
0	3105	151.137420797985	0.047549502495
0	3107	151.237420797985	0.047549502495
0	3108	151.327516357	0.047549502495
0	3109	151.337420797985	0.047549502495
0	3111	151.437420797985	0.047549502495
0	3113	151.537420797985	0.047549502495
0	3114	151.624404196	0.047549502495
0	3115	151.637420797985	0.047549502495
0	3117	151.737420797985	0.047549502495
0	3119	151.837420797985	0.047549502495
0	3120	151.906805065	0.047549502495
0	3121	151.937420797985	0.047549502495
0	3123	152.037420797985	0.047549502495
0	3125	152.137420797985	0.047549502495
0	3126	152.169251548	0.047549502495
0	3127	152.237420797985	0.047549502495
0	3129	152.337420797985	0.047549502495
0	3131	152.437420797985	0.047549502495
0	3133	152.537420797985	0.047549502495
0	3135	152.637420797985	0.047549502495
0	3136	152.713772914	0.047549502495
0	3137	152.737420797985	0.047549502495
0	3139	152.837420797985	0.047549502495
0	3140	152.93506276	0.047549502495
0	3141	152.937420797985	0.047549502495
0	3142	152.941572783224	0.047549502495
0	3144	153.041572783224	0.047549502495
0	3146	153.141572783224	0.04707400747005
0	3146	153.141572783224	0.04707400747005
0	3148	153.241572783224	0.04707400747005
0	3150	153.341572783224	0.04707400747005
0	3151	153.414785296	0.04707400747005
0	3152	153.441572783224	0.04707400747005
0	3154	153.541572783224	0.04707400747005
0	3156	153.641572783224	0.04707400747005
0	3158	153.741572783224	0.04707400747005
0	3160	153.841572783224	0.04707400747005
0	3161	153.894417985	0.04707400747005
0	3162	153.941572783224	0.04707400747005
0	3164	154.041572783224	0.04707400747005
0	3166	154.141572783224	0.04707400747005
0	3167	154.178356993	0.04707400747005
0	3168	154.241572783224	0.04707400747005
0	3170	154.341572783224	0.04707400747005
0	3172	154.441572783224	0.04707400747005
0	3172	154.458290845	0.04707400747005
0	3174	154.541572783224	0.04707400747005
0	3176	154.641572783224	0.04707400747005
0	3177	154.708544473	0.04707400747005
0	3178	154.741572783224	0.04707400747005
0	3180	154.841572783224	0.04707400747005
0	3182	154.941572783224	0.04707400747005
0	3184	155.041572783224	0.04707400747005
0	3185	155.13019297	0.04707400747005
0	3186	155.141572783224	0.04707400747005
0	3188	155.241572783224	0.04707400747005
0	3190	155.341572783224	0.04707400747005
0	3192	155.441572783224	0.04707400747005
0	3194	155.541572783224	0.04707400747005
0	3195	155.630567395	0.04707400747005
0	3196	155.641572783224	0.04707400747005
0	3198	155.741572783224	0.04707400747005
0	3200	155.841572783224	0.04660326739535
0	3200	155.841572783224	0.04660326739535
0	3202	155.941572783224	0.04660326739535
0	3205	156.041572783224	0.04660326739535
0	3207	156.141572783224	0.04660326739535
0	3208	156.217710661	0.04660326739535
0	3209	156.241572783224	0.04660326739535
0	3211	156.341572783224	0.04660326739535
0	3213	156.441572783224	0.04660326739535
0	3215	156.541572783224	0.04660326739535
0	3217	156.641572783224	0.04660326739535
0	3218	156.67908562	0.04660326739535
0	3219	156.741572783224	0.04660326739535
0	3221	156.841572783224	0.04660326739535
0	3223	156.941572783224	0.04660326739535
0	3225	157.041572783224	0.04660326739535
0	3226	157.107527782	0.04660326739535
0	3227	157.141572783224	0.04660326739535
0	3229	157.241572783224	0.04660326739535
0	3231	157.341572783224	0.04660326739535
0	3233	157.441572783224	0.04660326739535
0	3234	157.528190206	0.04660326739535
0	3235	157.541572783224	0.04660326739535
0	3237	157.641572783224	0.04660326739535
0	3239	157.741572783224	0.04660326739535
0	3239	157.757967076	0.04660326739535
0	3241	157.841572783224	0.04660326739535
0	3243	157.941572783224	0.04660326739535
0	3245	158.041572783224	0.04660326739535
0	3246	158.063865846066	0.04660326739535
0	3249	158.163865846066	0.04660326739535
0	3250	158.166154933	0.04660326739535
0	3251	158.263865846066	0.04660326739535
0	3253	158.363865846066	0.04660326739535
0	3255	158.463865846066	0.04660326739535
0	3257	158.563865846066	0.046137234721396
0	3257	158.563865846066	0.046137234721396
0	3258	158.621861722	0.046137234721396
0	3259	158.663865846066	0.046137234721396
0	3261	158.763865846066	0.046137234721396
0	3263	158.863865846066	0.046137234721396
0	3265	158.963865846066	0.046137234721396
0	3267	159.063865846066	0.046137234721396
0	3268	159.117511075	0.046137234721396
0	3269	159.163865846066	0.046137234721396
0	3271	159.263865846066	0.046137234721396
0	3273	159.363865846066	0.046137234721396
0	3274	159.395621164	0.046137234721396
0	3275	159.463865846066	0.046137234721396
0	3277	159.563865846066	0.046137234721396
0	3279	159.663865846066	0.046137234721396
0	3280	159.689524924	0.046137234721396
0	3281	159.763865846066	0.046137234721396
0	3283	159.863865846066	0.045675862374182
0	3283	159.863865846066	0.045675862374182
0	3285	159.963865846066	0.045675862374182
0	3287	160.063865846066	0.045675862374182
0	3288	160.138995733	0.045675862374182
0	3289	160.163865846066	0.045675862374182
0	3291	160.263865846066	0.045675862374182
0	3293	160.363865846066	0.045675862374182
0	3294	160.390467613	0.045675862374182
0	3295	160.463865846066	0.045675862374182
0	3297	160.563865846066	0.045675862374182
0	3299	160.663865846066	0.045675862374182
0	3301	160.763865846066	0.045675862374182
0	3303	160.783715085468	0.045675862374182
0	3303	160.835962777	0.04588485314031
0	3304	160.863865846066	0.045996465416574
0	3305	160.864749491922	0.046
0	3307	160.963865846066	0.046396465416576
0	3309	160.989749491922	0.0465
0	3310	161.063865846066	0.046796465416576
0	3312	161.114749491922	0.047
0	3313	161.163865846066	0.047196465416576
0	3315	161.239749491922	0.0475
0	3316	161.263865846066	0.047596465416576
0	3317	161.319255022	0.047818022120312
0	3318	161.363865846066	0.047996465416576
0	3319	161.364749491922	0.048
0	3321	161.463865846066	0.048396465416576
0	3323	161.489749491922	0.0485
0	3324	161.563865846066	0.048796465416576
0	3326	161.614749491922	0.049
0	3327	161.663865846066	0.049196465416576
0	3329	161.739749491922	0.0495
0	3330	161.763865846066	0.049596465416576
0	3331	161.837198158	0.049889794664312
0	3332	161.863865846066	0.049996465416576
0	3333	161.864749491922	0.05
0	3335	161.963865846066	0.05
0	3337	162.063865846066	0.05
0	3339	162.163865846066	0.05
0	3341	162.263865846066	0.0495
0	3341	162.263865846066	0.0495
0	3342	162.290752372	0.049607546103736
0	3343	162.363865846066	0.0499
0	3345	162.463865846066	0.05
0	3347	162.563865846066	0.05
0	3350	162.663865846066	0.05
0	3352	162.763865846066	0.05
0	3353	162.854007523	0.05
0	3354	162.863865846066	0.05
0	3356	162.963865846066	0.05
0	3358	163.063865846066	0.05
0	3360	163.163865846066	0.05
0	3362	163.204260301673	0.05
0	3364	163.304260301673	0.05
0	3366	163.404260301673	0.05
0	3366	163.436812036	0.05
0	3368	163.504260301673	0.05
0	3370	163.604260301673	0.05
0	3372	163.704260301673	0.05
0	3372	163.707419197	0.05
0	3374	163.804260301673	0.05
0	3376	163.904260301673	0.05
0	3378	164.004260301673	0.05
0	3380	164.104260301673	0.05
0	3380	164.109064909	0.05
0	3382	164.204260301673	0.05
0	3384	164.304260301673	0.05
0	3386	164.404260301673	0.05
0	3388	164.504260301673	0.05
0	3390	164.604260301673	0.05
0	3390	164.659778464	0.05
0	3392	164.704260301673	0.05
0	3394	164.804260301673	0.05
0	3396	164.904260301673	0.05
0	3398	165.004260301673	0.05
0	3398	165.050859997	0.05
0	3400	165.104260301673	0.05
0	3402	165.204260301673	0.05
0	3404	165.304260301673	0.05
0	3406	165.404260301673	0.05
0	3408	165.504260301673	0.05
0	3408	165.518450332	0.05
0	3410	165.604260301673	0.05
0	3412	165.704260301673	0.05
0	3414	165.804260301673	0.05
0	3416	165.904260301673	0.05
0	3418	166.004260301673	0.05
0	3418	166.013240233	0.05
0	3420	166.104260301673	0.05
0	3422	166.204260301673	0.05
0	3424	166.304260301673	0.05
0	3426	166.404260301673	0.05
0	3428	166.504260301673	0.05
0	3428	166.52949598	0.05
0	3430	166.604260301673	0.05
0	3432	166.704260301673	0.05
0	3434	166.804260301673	0.05
0	3436	166.904260301673	0.05
0	3438	167.004260301673	0.05
0	3438	167.04301588	0.05
0	3440	167.104260301673	0.05
0	3442	167.204260301673	0.05
0	3444	167.304260301673	0.05
0	3444	167.327113747	0.05
0	3446	167.404260301673	0.05
0	3448	167.504260301673	0.05
0	3450	167.604260301673	0.05
0	3452	167.704260301673	0.05
0	3452	167.759116309	0.0495
0	3452	167.759116309	0.0495
0	3454	167.804260301673	0.049680575970692
0	3456	167.904260301673	0.05
0	3458	168.004260301673	0.05
0	3460	168.104260301673	0.05
0	3462	168.204260301673	0.05
0	3462	168.234200185	0.05
0	3464	168.304260301673	0.05
0	3465	168.311776956173	0.05
0	3467	168.411776956173	0.05
0	3469	168.511776956173	0.05
0	3471	168.611776956173	0.05
0	3473	168.711776956173	0.05
0	3473	168.720457879	0.05
0	3475	168.811776956173	0.05
0	3477	168.911776956173	0.05
0	3477	168.985706485	0.05
0	3479	169.011776956173	0.0495
0	3479	169.011776956173	0.0495
0	3481	169.111776956173	0.0499
0	3483	169.211776956173	0.05
0	3485	169.311776956173	0.05
0	3487	169.411776956173	0.05
0	3489	169.511776956173	0.05
0	3489	169.576664569	0.05
0	3491	169.611776956173	0.05
0	3493	169.711776956173	0.05
0	3495	169.811776956173	0.05
0	3497	169.911776956173	0.05
0	3499	170.011776956173	0.05
0	3501	170.111776956173	0.05
0	3501	170.178205537	0.05
0	3503	170.211776956173	0.05
0	3505	170.311776956173	0.05
0	3507	170.411776956173	0.05
0	3509	170.511776956173	0.0495
0	3509	170.511776956173	0.0495
0	3511	170.611776956173	0.0499
0	3513	170.711776956173	0.05
0	3515	170.811776956173	0.05
0	3515	170.891045947	0.05
0	3517	170.911776956173	0.05
0	3519	171.011776956173	0.05
0	3521	171.111776956173	0.05
0	3522	171.115395265388	0.05
0	3524	171.211776956173	0.05
0	3526	171.311776956173	0.05
0	3528	171.411776956173	0.05
0	3530	171.511776956173	0.05
0	3530	171.567136438	0.05
0	3532	171.611776956173	0.05
0	3534	171.711776956173	0.05
0	3536	171.811776956173	0.05
0	3538	171.911776956173	0.05
0	3540	172.011776956173	0.05
0	3541	172.100053006	0.05
0	3542	172.111776956173	0.05
0	3544	172.211776956173	0.05
0	3546	172.311776956173	0.05
0	3548	172.411776956173	0.05
0	3550	172.511776956173	0.05
0	3552	172.611776956173	0.05
0	3554	172.711776956173	0.05
0	3555	172.802722366	0.05
0	3556	172.811776956173	0.05
0	3558	172.911776956173	0.05
0	3560	173.011776956173	0.05
0	3562	173.111776956173	0.05
0	3564	173.211776956173	0.05
0	3566	173.311776956173	0.05
0	3566	173.390618692	0.05
0	3568	173.411776956173	0.05
0	3570	173.511776956173	0.05
0	3572	173.611776956173	0.05
0	3574	173.711776956173	0.05
0	3576	173.811776956173	0.05
0	3576	173.857618159	0.05
0	3578	173.911776956173	0.05
0	3580	174.011776956173	0.05
0	3582	174.111776956173	0.05
0	3584	174.211776956173	0.05
0	3586	174.311776956173	0.05
0	3586	174.333017791	0.05
0	3588	174.411776956173	0.05
0	3590	174.511776956173	0.05
0	3592	174.611776956173	0.05
0	3594	174.711776956173	0.05
0	3596	174.811776956173	0.05
0	3596	174.835176301	0.0495
0	3596	174.835176301	0.0495
0	3598	174.911776956173	0.0495
0	3600	175.011776956173	0.0495
0	3602	175.111776956173	0.0495
0	3602	175.127955877	0.0495
0	3604	175.211776956173	0.0495
0	3606	175.311776956173	0.0495
0	3608	175.411776956173	0.0495
0	3610	175.511776956173	0.0495
0	3610	175.577839663	0.0495
0	3612	175.611776956173	0.0495
0	3614	175.711776956173	0.0495
0	3616	175.811776956173	0.0495
0	3617	175.853687719065	0.0495
0	3619	175.953687719065	0.0495
0	3621	176.053687719065	0.0495
0	3622	176.11045084	0.0495
0	3623	176.153687719065	0.049005
0	3623	176.153687719065	0.049005
0	3625	176.253687719065	0.049005
0	3627	176.353687719065	0.049005
0	3629	176.453687719065	0.049005
0	3630	176.524409956	0.049005
0	3631	176.553687719065	0.049005
0	3633	176.653687719065	0.049005
0	3635	176.753687719065	0.049005
0	3637	176.853687719065	0.049005
0	3639	176.953687719065	0.049005
0	3640	177.027247948	0.049005
0	3641	177.053687719065	0.049005
0	3643	177.153687719065	0.049005
0	3645	177.253687719065	0.049005
0	3646	177.322061089	0.049005
0	3647	177.353687719065	0.049005
0	3649	177.453687719065	0.049005
0	3651	177.553687719065	0.04851495
0	3651	177.553687719065	0.04851495
0	3653	177.653687719065	0.04851495
0	3655	177.753687719065	0.04851495
0	3656	177.83111752	0.04851495
0	3657	177.853687719065	0.04851495
0	3659	177.953687719065	0.04851495
0	3661	178.053687719065	0.04851495
0	3663	178.153687719065	0.04851495
0	3665	178.253687719065	0.04851495
0	3667	178.353687719065	0.04851495
0	3668	178.435370032	0.04851495
0	3669	178.453687719065	0.04851495
0	3671	178.553687719065	0.04851495
0	3674	178.653687719065	0.04851495
0	3677	178.753687719065	0.04851495
0	3680	178.853687719065	0.04851495
0	3683	178.953687719065	0.04851495
0	3683	178.98400762	0.04851495
0	3685	179.053687719065	0.04851495
0	3688	179.153687719065	0.04851495
0	3691	179.253687719065	0.04851495
0	3694	179.353687719065	0.04851495
0	3697	179.453687719065	0.04851495
0	3697	179.467568047	0.04851495
0	3699	179.553687719065	0.04851495
0	3701	179.653687719065	0.04851495
0	3703	179.753687719065	0.04851495
0	3705	179.853687719065	0.04851495
0	3707	179.953687719065	0.04851495
0	3709	180.053687719065	0.04851495
0	3709	180.065055046	0.04851495
0	3711	180.153687719065	0.04851495
0	3713	180.253687719065	0.04851495
0	3715	180.353687719065	0.04851495
0	3717	180.453687719065	0.04851495
0	3719	180.553687719065	0.04851495
0	3720	180.643220158	0.04851495
0	3721	180.653687719065	0.04851495
0	3723	180.753687719065	0.04851495
0	3725	180.853687719065	0.04851495
0	3727	180.953687719065	0.04851495
0	3729	181.053687719065	0.04851495
0	3731	181.153687719065	0.04851495
0	3731	181.168081378	0.04851495
0	3733	181.253687719065	0.04851495
0	3735	181.353687719065	0.04851495
0	3737	181.453687719065	0.04851495
0	3739	181.553687719065	0.0480298005
0	3739	181.553687719065	0.0480298005
0	3741	181.653687719065	0.0480298005
0	3741	181.696284946	0.0480298005
0	3743	181.753687719065	0.0480298005
0	3745	181.853687719065	0.0480298005
0	3747	181.953687719065	0.0480298005
0	3749	182.048064116204	0.0480298005
0	3751	182.148064116204	0.0480298005
0	3753	182.248064116204	0.0480298005
0	3755	182.348064116204	0.0480298005
0	3757	182.448064116204	0.0480298005
0	3759	182.548064116204	0.0480298005
0	3759	182.56789156	0.0480298005
0	3761	182.648064116204	0.0480298005
0	3763	182.748064116204	0.0480298005
0	3765	182.848064116204	0.0480298005
0	3767	182.948064116204	0.0480298005
0	3769	183.048064116204	0.047549502495
0	3769	183.048064116204	0.047549502495
0	3771	183.148064116204	0.047549502495
0	3773	183.248064116204	0.047549502495
0	3774	183.346654132	0.047549502495
0	3775	183.348064116204	0.047549502495
0	3777	183.448064116204	0.047549502495
0	3779	183.548064116204	0.047549502495
0	3781	183.648064116204	0.047549502495
0	3783	183.748064116204	0.047549502495
0	3785	183.848064116204	0.047549502495
0	3787	183.948064116204	0.047549502495
0	3787	183.985633186	0.047549502495
0	3789	184.048064116204	0.047549502495
0	3791	184.148064116204	0.047549502495
0	3793	184.248064116204	0.047549502495
0	3795	184.348064116204	0.047549502495
0	3797	184.448064116204	0.047549502495
0	3797	184.479553672	0.047549502495
0	3799	184.548064116204	0.047549502495
0	3801	184.648064116204	0.047549502495
0	3803	184.748064116204	0.047549502495
0	3805	184.848064116204	0.047549502495
0	3807	184.948064116204	0.047549502495
0	3807	184.956087727	0.047549502495
0	3809	185.048064116204	0.047549502495
0	3811	185.148064116204	0.047549502495
0	3813	185.248064116204	0.047549502495
0	3815	185.348064116204	0.047549502495
0	3817	185.448064116204	0.047549502495
0	3819	185.548064116204	0.047549502495
0	3820	185.604332758	0.047549502495
0	3821	185.648064116204	0.047549502495
0	3823	185.748064116204	0.047549502495
0	3825	185.848064116204	0.047549502495
0	3827	185.948064116204	0.04707400747005
0	3827	185.948064116204	0.04707400747005
0	3829	186.048064116204	0.04707400747005
0	3830	186.102756997	0.04707400747005
0	3831	186.148064116204	0.04707400747005
0	3833	186.248064116204	0.04707400747005
0	3835	186.348064116204	0.04707400747005
0	3837	186.448064116204	0.04707400747005
0	3838	186.511486048	0.04707400747005
0	3839	186.548064116204	0.04707400747005
0	3841	186.648064116204	0.04707400747005
0	3843	186.748064116204	0.04707400747005
0	3845	186.848064116204	0.04707400747005
0	3847	186.948064116204	0.04707400747005
0	3848	187.000856551	0.04707400747005
0	3849	187.048064116204	0.04707400747005
0	3851	187.103474149094	0.04707400747005
0	3853	187.203474149094	0.04707400747005
0	3857	187.303474149094	0.04707400747005
0	3860	187.403474149094	0.04707400747005
0	3862	187.503474149094	0.04707400747005
0	3864	187.603474149094	0.04707400747005
0	3864	187.674308224	0.04707400747005
0	3866	187.703474149094	0.04707400747005
0	3868	187.803474149094	0.04707400747005
0	3870	187.903474149094	0.04707400747005
0	3872	188.003474149094	0.04707400747005
0	3874	188.103474149094	0.04707400747005
0	3876	188.203474149094	0.04707400747005
0	3876	188.23106254	0.04707400747005
0	3878	188.303474149094	0.04707400747005
0	3880	188.403474149094	0.04707400747005
0	3882	188.503474149094	0.04707400747005
0	3884	188.603474149094	0.04707400747005
0	3886	188.703474149094	0.04707400747005
0	3886	188.734933657	0.04707400747005
0	3888	188.803474149094	0.04707400747005
0	3890	188.903474149094	0.04707400747005
0	3892	189.003474149094	0.04707400747005
0	3894	189.103474149094	0.04707400747005
0	3896	189.203474149094	0.04707400747005
0	3896	189.25999606	0.04707400747005
0	3898	189.303474149094	0.04707400747005
0	3900	189.403474149094	0.04707400747005
0	3902	189.503474149094	0.04707400747005
0	3904	189.603474149094	0.04707400747005
0	3904	189.688865281	0.04707400747005
0	3906	189.703474149094	0.04707400747005
0	3908	189.803474149094	0.04707400747005
0	3910	189.903474149094	0.04707400747005
0	3910	189.956082904	0.04707400747005
0	3912	190.003474149094	0.04707400747005
0	3914	190.103474149094	0.04707400747005
0	3916	190.203474149094	0.04707400747005
0	3918	190.303474149094	0.04707400747005
0	3920	190.403474149094	0.04707400747005
0	3921	190.460382697	0.04707400747005
0	3922	190.503474149094	0.04707400747005
0	3924	190.603474149094	0.04707400747005
0	3926	190.703474149094	0.04707400747005
0	3928	190.803474149094	0.04707400747005
0	3929	190.854200338	0.04707400747005
0	3930	190.903474149094	0.04707400747005
0	3932	191.003474149094	0.04707400747005
0	3934	191.103474149094	0.04707400747005
0	3936	191.203474149094	0.04707400747005
0	3937	191.298537598	0.04707400747005
0	3938	191.303474149094	0.04707400747005
0	3940	191.403474149094	0.04707400747005
0	3942	191.503474149094	0.04707400747005
0	3943	191.558098531	0.04707400747005
0	3944	191.603474149094	0.04707400747005
0	3946	191.703474149094	0.04707400747005
0	3948	191.803474149094	0.04707400747005
0	3948	191.839600933	0.04707400747005
0	3950	191.903474149094	0.04707400747005
0	3952	192.003474149094	0.04707400747005
0	3954	192.103474149094	0.04707400747005
0	3956	192.203474149094	0.04707400747005
0	3957	192.293049031	0.04707400747005
0	3958	192.303474149094	0.04707400747005
0	3960	192.403474149094	0.04707400747005
0	3962	192.503474149094	0.04707400747005
0	3963	192.557336647	0.04707400747005
0	3964	192.603474149094	0.04707400747005
0	3966	192.703474149094	0.04707400747005
0	3968	192.803474149094	0.04707400747005
0	3970	192.903474149094	0.04707400747005
0	3972	193.003474149094	0.04707400747005
0	3972	193.015585282	0.04707400747005
0	3974	193.103474149094	0.04707400747005
0	3976	193.203474149094	0.04707400747005
0	3976	193.247194639	0.04707400747005
0	3978	193.303474149094	0.04707400747005
0	3979	193.315391814581	0.04707400747005
0	3982	193.415391814581	0.04707400747005
0	3984	193.515391814581	0.04707400747005
0	3984	193.538361835	0.04707400747005
0	3986	193.615391814581	0.04707400747005
0	3988	193.715391814581	0.04707400747005
0	3990	193.815391814581	0.04707400747005
0	3990	193.838773144	0.04707400747005
0	3992	193.915391814581	0.04660326739535
0	3992	193.915391814581	0.04660326739535
0	3994	194.015391814581	0.04660326739535
0	3996	194.115391814581	0.04660326739535
0	3998	194.215391814581	0.04660326739535
0	4000	194.315391814581	0.04660326739535
0	4000	194.322781375	0.04660326739535
0	4002	194.415391814581	0.04660326739535
0	4004	194.515391814581	0.04660326739535
0	4005	194.605149199	0.04660326739535
0	4006	194.615391814581	0.04660326739535
0	4008	194.715391814581	0.04660326739535
0	4010	194.815391814581	0.04660326739535
0	4012	194.915391814581	0.04660326739535
0	4014	195.015391814581	0.04660326739535
0	4015	195.100554415	0.04660326739535
0	4016	195.115391814581	0.04660326739535
0	4018	195.215391814581	0.04660326739535
0	4020	195.315391814581	0.046137234721396
0	4020	195.315391814581	0.046137234721396
0	4022	195.415391814581	0.046137234721396
0	4024	195.515391814581	0.046137234721396
0	4024	195.551029072	0.046137234721396
0	4026	195.615391814581	0.046137234721396
0	4028	195.715391814581	0.046137234721396
0	4030	195.815391814581	0.046137234721396
0	4030	195.843996151	0.046137234721396
0	4032	195.915391814581	0.046137234721396
0	4034	196.015391814581	0.046137234721396
0	4036	196.115391814581	0.046137234721396
0	4038	196.215391814581	0.046137234721396
0	4040	196.315391814581	0.046137234721396
0	4041	196.398343417	0.046137234721396
0	4042	196.415391814581	0.046137234721396
0	4044	196.515391814581	0.046137234721396
0	4046	196.615391814581	0.046137234721396
0	4048	196.715391814581	0.045675862374182
0	4048	196.715391814581	0.045675862374182
0	4050	196.815391814581	0.045675862374182
0	4052	196.915391814581	0.045675862374182
0	4052	196.935419935	0.045675862374182
0	4054	197.015391814581	0.045675862374182
0	4056	197.115391814581	0.045675862374182
[...]
2	5485	266.662775145574	0.04851495
2	5487	266.762775145574	0.04851495
2	5489	266.862775145574	0.04851495
2	5491	266.962775145574	0.04851495
2	5491	267.022107049	0.04851495
2	5493	267.062775145574	0.04851495
2	5495	267.162775145574	0.04851495
2	5497	267.262775145574	0.04851495
2	5499	267.362775145574	0.04851495
2	5501	267.462775145574	0.04851495
2	5502	267.557389111	0.04851495
2	5503	267.562775145574	0.04851495
2	5505	267.662775145574	0.04851495
2	5507	267.762775145574	0.04851495
2	5509	267.862775145574	0.04851495
2	5511	267.962775145574	0.04851495
2	5512	268.04978821	0.0480298005
2	5512	268.04978821	0.0480298005
2	5513	268.062775145574	0.0480298005
2	5515	268.162775145574	0.0480298005
2	5517	268.262775145574	0.0480298005
2	5519	268.362775145574	0.0480298005
2	5521	268.462775145574	0.0480298005
2	5523	268.562775145574	0.0480298005
2	5523	268.595162191	0.0480298005
2	5525	268.662775145574	0.0480298005
2	5527	268.762775145574	0.0480298005
2	5529	268.862775145574	0.0480298005
2	5531	268.962775145574	0.0480298005
2	5533	269.062775145574	0.0480298005
2	5533	269.075466505	0.0480298005
2	5535	269.162775145574	0.0480298005
2	5537	269.262775145574	0.0480298005
2	5539	269.362775145574	0.0480298005
2	5541	269.462775145574	0.0480298005
2	5543	269.562775145574	0.0480298005
2	5543	269.58176353	0.0480298005
2	5545	269.662775145574	0.0480298005
2	5547	269.762775145574	0.0480298005
2	5549	269.862775145574	0.0480298005
2	5551	269.962775145574	0.0480298005
2	5553	270.062775145574	0.0480298005
2	5554	270.078973148815	0.0480298005
2	5556	270.162775145574	0.048365008487036
2	5556	270.17978521	0.04843304874474
2	5557	270.196523023815	0.0485
2	5559	270.262775145574	0.048765008487036
2	5560	270.321523023815	0.049
2	5562	270.362775145574	0.049165008487036
2	5564	270.446523023815	0.0495
2	5565	270.462775145574	0.049565008487036
2	5567	270.562775145574	0.049965008487036
2	5568	270.571523023815	0.05
2	5570	270.662775145574	0.05
2	5572	270.762775145574	0.0495
2	5572	270.762775145574	0.0495
2	5574	270.862775145574	0.0499
2	5574	270.888105217	0.05
2	5576	270.962775145574	0.05
2	5578	271.062775145574	0.05
2	5580	271.162775145574	0.05
2	5582	271.262775145574	0.05
2	5582	271.322628517	0.05
2	5584	271.362775145574	0.05
2	5586	271.462775145574	0.05
2	5588	271.562775145574	0.05
2	5590	271.662775145574	0.05
2	5592	271.762775145574	0.05
2	5592	271.806104866	0.05
2	5594	271.862775145574	0.05
2	5596	271.962775145574	0.05
2	5598	272.062775145574	0.05
2	5600	272.162775145574	0.0495
2	5600	272.162775145574	0.0495
2	5600	272.222798383	0.049740092949704
2	5602	272.262775145574	0.0499
2	5604	272.362775145574	0.05
2	5606	272.462775145574	0.05
2	5608	272.562775145574	0.05
2	5609	272.65457041	0.05
2	5610	272.662775145574	0.05
2	5612	272.762775145574	0.05
2	5614	272.862775145574	0.05
2	5616	272.962775145574	0.05
2	5618	273.062775145574	0.05
2	5618	273.130585348	0.05
2	5620	273.162775145574	0.05
2	5622	273.262775145574	0.05
2	5624	273.362775145574	0.05
2	5626	273.462775145574	0.05
2	5628	273.562775145574	0.0495
2	5628	273.562775145574	0.0495
2	5628	273.594474961	0.049626799261704
2	5630	273.662775145574	0.0499
2	5632	273.762775145574	0.05
2	5634	273.862775145574	0.05
2	5636	273.962775145574	0.05
2	5638	274.062775145574	0.05
2	5638	274.070535154	0.05
2	5640	274.162775145574	0.05
2	5642	274.262775145574	0.05
2	5644	274.362775145574	0.05
2	5646	274.462775145574	0.05
2	5647	274.539371338	0.05
2	5648	274.562775145574	0.05
2	5650	274.662775145574	0.05
2	5652	274.762775145574	0.05
2	5654	274.862775145574	0.05
2	5656	274.962775145574	0.0495
2	5656	274.962775145574	0.0495
2	5656	275.02589695	0.049752487217704
2	5658	275.062775145574	0.0499
2	5660	275.162775145574	0.05
2	5662	275.262775145574	0.05
2	5662	275.295530185	0.05
2	5664	275.362775145574	0.05
2	5666	275.462775145574	0.05
2	5668	275.562775145574	0.05
2	5670	275.662775145574	0.05
2	5672	275.762775145574	0.05
2	5674	275.862775145574	0.05
2	5674	275.864682331	0.05
2	5676	275.962775145574	0.05
2	5678	276.062775145574	0.05
2	5680	276.162775145574	0.05
2	5682	276.262775145574	0.05
2	5684	276.362775145574	0.0495
2	5684	276.362775145574	0.0495
2	5684	276.407444878	0.049678678929704
2	5686	276.462775145574	0.0499
2	5688	276.562775145574	0.05
2	5690	276.662775145574	0.05
2	5692	276.762775145574	0.05
2	5694	276.862775145574	0.05
2	5694	276.909699622	0.05
2	5696	276.962775145574	0.05
2	5698	277.062775145574	0.05
2	5700	277.162775145574	0.05
2	5702	277.262775145574	0.05
2	5704	277.362775145574	0.05
2	5704	277.409525104	0.05
2	5706	277.462775145574	0.05
2	5708	277.562775145574	0.05
2	5710	277.662775145574	0.05
2	5712	277.762775145574	0.0495
2	5712	277.762775145574	0.0495
2	5714	277.862775145574	0.0499
2	5714	277.916892154	0.05
2	5716	277.962775145574	0.05
2	5718	278.062775145574	0.05
2	5721	278.162775145574	0.05
2	5721	278.191102378	0.05
2	5723	278.262775145574	0.05
2	5725	278.362775145574	0.05
2	5727	278.462775145574	0.05
2	5729	278.562775145574	0.05
2	5731	278.662775145574	0.05
2	5731	278.731566916	0.05
2	5733	278.762775145574	0.05
2	5735	278.862775145574	0.05
2	5737	278.962775145574	0.05
2	5739	279.062775145574	0.05
2	5740	279.153016153	0.05
2	5741	279.162775145574	0.05
2	5743	279.262775145574	0.05
2	5745	279.362775145574	0.05
2	5747	279.462775145574	0.05
2	5749	279.562775145574	0.05
2	5750	279.66214174	0.05
2	5751	279.662775145574	0.05
2	5753	279.762775145574	0.05
2	5755	279.862775145574	0.05
2	5757	279.962775145574	0.05
2	5759	280.062775145574	0.05
2	5761	280.162775145574	0.05
2	5761	280.205945503	0.05
2	5763	280.262775145574	0.05
2	5765	280.362775145574	0.05
2	5767	280.462775145574	0.05
2	5769	280.562775145574	0.05
2	5769	280.616298622	0.05
2	5771	280.662775145574	0.05
2	5773	280.762775145574	0.05
2	5775	280.862775145574	0.05
2	5777	280.962775145574	0.05
2	5779	281.062775145574	0.05
2	5779	281.077331209	0.05
2	5781	281.162775145574	0.05
2	5783	281.262775145574	0.05
2	5785	281.362775145574	0.05
2	5787	281.462775145574	0.05
2	5789	281.562775145574	0.05
2	5791	281.662775145574	0.05
2	5791	281.676864283	0.05
2	5793	281.746205199972	0.05
2	5794	281.762775145574	0.05
2	5796	281.862775145574	0.0495
2	5796	281.862775145574	0.0495
2	5798	281.962775145574	0.0495
2	5800	282.062775145574	0.0495
2	5802	282.162775145574	0.0495
2	5804	282.262775145574	0.0495
2	5804	282.328397959	0.0495
2	5806	282.362775145574	0.0495
2	5808	282.462775145574	0.0495
2	5810	282.562775145574	0.0495
2	5812	282.662775145574	0.0495
2	5814	282.762775145574	0.0495
2	5816	282.862775145574	0.0495
2	5816	282.881177131	0.0495
2	5818	282.962775145574	0.0495
2	5820	283.062775145574	0.0495
2	5822	283.162775145574	0.0495
2	5824	283.262775145574	0.0495
2	5825	283.345977898	0.0495
2	5826	283.362775145574	0.0495
2	5828	283.462775145574	0.0495
2	5830	283.562775145574	0.0495
2	5830	283.632601936	0.0495
2	5832	283.662775145574	0.0495
2	5834	283.762775145574	0.0495
2	5836	283.862775145574	0.0495
2	5838	283.962775145574	0.0495
2	5840	284.062775145574	0.0495
2	5842	284.162775145574	0.0495
2	5843	284.239271884	0.0495
2	5844	284.262775145574	0.0495
2	5847	284.362775145574	0.0495
2	5849	284.462775145574	0.0495
2	5851	284.562775145574	0.0495
2	5853	284.662775145574	0.0495
2	5855	284.762775145574	0.0495
2	5855	284.771678146	0.0495
2	5857	284.862775145574	0.0495
2	5859	284.962775145574	0.0495
2	5861	285.062775145574	0.0495
2	5863	285.162775145574	0.0495
2	5865	285.262775145574	0.0495
2	5865	285.30344878	0.0495
2	5867	285.362775145574	0.0495
2	5869	285.462775145574	0.0495
2	5871	285.562775145574	0.0495
2	5873	285.662775145574	0.0495
2	5875	285.762775145574	0.0495
2	5877	285.862775145574	0.0495
2	5878	285.945841552	0.0495
2	5879	285.962775145574	0.0495
2	5881	286.062775145574	0.0495
2	5883	286.162775145574	0.0495
2	5885	286.262775145574	0.0495
2	5887	286.362775145574	0.0495
2	5889	286.462775145574	0.0495
2	5889	286.472574802	0.0495
2	5891	286.562775145574	0.0495
2	5893	286.662775145574	0.0495
2	5895	286.762775145574	0.0495
2	5897	286.862775145574	0.0495
2	5899	286.962775145574	0.0495
2	5901	287.062775145574	0.0495
2	5901	287.08399843	0.0495
2	5903	287.162775145574	0.0495
2	5905	287.262775145574	0.0495
2	5906	287.3431639	0.0495
2	5907	287.362775145574	0.0495
2	5909	287.462775145574	0.0495
2	5911	287.562775145574	0.0495
2	5913	287.662775145574	0.0495
2	5915	287.762775145574	0.0495
2	5916	287.861615755	0.0495
2	5917	287.862775145574	0.0495
2	5919	287.962775145574	0.0495
2	5921	288.062775145574	0.0495
2	5923	288.162775145574	0.0495
2	5925	288.262775145574	0.0495
2	5925	288.269878321	0.0495
2	5927	288.362775145574	0.0495
2	5929	288.462775145574	0.0495
2	5931	288.562775145574	0.0495
2	5931	288.564202702	0.0495
2	5933	288.662775145574	0.0495
2	5935	288.762775145574	0.0495
2	5937	288.862775145574	0.0495
2	5939	288.962775145574	0.0495
2	5941	289.062775145574	0.0495
2	5941	289.085541172	0.0495
2	5943	289.162775145574	0.0495
2	5945	289.262775145574	0.0495
2	5947	289.362775145574	0.0495
2	5949	289.462775145574	0.0495
2	5949	289.493547505	0.0495
2	5951	289.562775145574	0.0495
2	5953	289.662775145574	0.0495
2	5955	289.762775145574	0.0495
2	5957	289.862775145574	0.0495
2	5957	289.920022342	0.0495
2	5959	289.962775145574	0.0495
2	5961	290.062775145574	0.0495
2	5963	290.162775145574	0.0495
2	5965	290.262775145574	0.0495
2	5967	290.362775145574	0.0495
2	5969	290.462775145574	0.0495
2	5969	290.523949576	0.0495
2	5971	290.562775145574	0.0495
2	5973	290.662775145574	0.0495
2	5975	290.762775145574	0.0495
2	5977	290.862775145574	0.0495
2	5979	290.962775145574	0.0495
2	5981	291.062775145574	0.0495
2	5981	291.109706251	0.0495
2	5983	291.162775145574	0.0495
2	5985	291.262775145574	0.0495
2	5987	291.362775145574	0.0495
2	5989	291.462775145574	0.0495
2	5991	291.562775145574	0.0495
2	5991	291.581801194	0.0495
2	5993	291.662775145574	0.0495
2	5995	291.762775145574	0.0495
2	5997	291.862775145574	0.0495
2	5999	291.962775145574	0.0495
2	5999	292.025230246	0.0495
2	6001	292.062775145574	0.0495
2	6003	292.162775145574	0.0495
2	6005	292.262775145574	0.0495
2	6007	292.362775145574	0.0495
2	6008	292.448111521	0.0495
2	6010	292.462775145574	0.0495
2	6013	292.562775145574	0.0495
2	6015	292.662775145574	0.0495
2	6016	292.717601725	0.0495
2	6018	292.762775145574	0.0495
2	6021	292.862775145574	0.0495
2	6024	292.962775145574	0.0495
2	6027	293.062775145574	0.0495
2	6029	293.162775145574	0.0495
2	6032	293.262775145574	0.0495
2	6032	293.263378195	0.0495
2	6035	293.362775145574	0.0495
2	6037	293.462775145574	0.0495
2	6038	293.555565091	0.0495
2	6039	293.562775145574	0.0495
2	6041	293.662775145574	0.0495
2	6043	293.762775145574	0.0495
2	6045	293.862775145574	0.0495
2	6047	293.962775145574	0.0495
2	6049	294.062775145574	0.0495
2	6049	294.067099792	0.0495
2	6051	294.162775145574	0.0495
2	6053	294.262775145574	0.0495
2	6055	294.362775145574	0.0495
2	6057	294.462775145574	0.0495
2	6058	294.542084155	0.0495
2	6059	294.562775145574	0.0495
2	6061	294.662775145574	0.0495
2	6063	294.762775145574	0.0495
2	6065	294.862775145574	0.0495
2	6067	294.962775145574	0.0495
2	6067	294.9982033	0.0495
2	6069	295.062775145574	0.0495
2	6071	295.162775145574	0.0495
2	6073	295.262775145574	0.0495
2	6075	295.362775145574	0.0495
2	6077	295.462775145574	0.0495
2	6077	295.47210343	0.0495
2	6079	295.562775145574	0.0495
2	6081	295.662775145574	0.0495
2	6083	295.75089567848	0.0495
2	6084	295.762775145574	0.049547517868376
2	6086	295.862775145574	0.049947517868376
2	6087	295.87589567848	0.05
2	6089	295.962775145574	0.05
2	6091	296.062775145574	0.05
2	6091	296.111394505	0.05
2	6093	296.162775145574	0.05
2	6095	296.262775145574	0.05
2	6097	296.362775145574	0.05
2	6099	296.462775145574	0.05
2	6101	296.562775145574	0.05
2	6103	296.662775145574	0.05
2	6103	296.681868175	0.05
2	6105	296.762775145574	0.05
2	6107	296.862775145574	0.05
2	6109	296.962775145574	0.05
2	6111	297.062775145574	0.05
2	6113	297.162775145574	0.05
2	6113	297.213885748	0.05
2	6115	297.262775145574	0.05
2	6117	297.362775145574	0.05
2	6119	297.462775145574	0.05
2	6121	297.562775145574	0.05
2	6123	297.662775145574	0.05
2	6123	297.707991625	0.05
2	6125	297.762775145574	0.05
2	6127	297.862775145574	0.05
2	6129	297.962775145574	0.05
2	6131	298.062775145574	0.05
2	6133	298.162775145574	0.05
2	6135	298.262775145574	0.05
2	6136	298.344736177	0.0495
2	6136	298.344736177	0.0495
2	6137	298.362775145574	0.049572155874296
2	6139	298.462775145574	0.049972155874296
2	6141	298.562775145574	0.05
2	6143	298.662775145574	0.05
2	6145	298.762775145574	0.05
2	6147	298.862775145574	0.05
2	6149	298.962775145574	0.05
2	6149	298.966656319	0.05
2	6151	299.062775145574	0.05
2	6153	299.162775145574	0.05
2	6155	299.262775145574	0.05
2	6157	299.362775145574	0.05
2	6159	299.462775145574	0.05
2	6159	299.48862325	0.05
2	6161	299.562775145574	0.05
2	6163	299.662775145574	0.05
2	6165	299.762775145574	0.05
2	6167	299.862775145574	0.05
2	6169	299.962775145574	0.05
2	6170	300.0437125	0.05
2	6171	300.062775145574	0.05
2	6173	300.162775145574	0.05
2	6175	300.262775145574	0.05
2	6177	300.362775145574	0.05
2	6179	300.462775145574	0.05
2	6181	300.562775145574	0.05
2	6181	300.579460243	0.05
2	6183	300.662775145574	0.05
2	6185	300.762775145574	0.05
2	6187	300.862775145574	0.05
2	6189	300.962775145574	0.05
2	6191	301.062775145574	0.05
2	6191	301.114522861	0.05
2	6193	301.162775145574	0.05
2	6195	301.262775145574	0.05
2	6197	301.362775145574	0.05
2	6199	301.462775145574	0.05
2	6201	301.562775145574	0.05
2	6201	301.612516729	0.05
2	6203	301.662775145574	0.05
2	6205	301.762775145574	0.05
2	6207	301.862775145574	0.05
2	6209	301.962775145574	0.05
2	6211	302.062775145574	0.05
2	6211	302.125606876	0.05
2	6213	302.162775145574	0.05
2	6215	302.262775145574	0.05
2	6217	302.362775145574	0.05
2	6219	302.462775145574	0.05
2	6221	302.562775145574	0.05
2	6221	302.569811896	0.05
2	6223	302.662775145574	0.05
2	6225	302.762775145574	0.05
2	6227	302.862775145574	0.05
2	6229	302.962775145574	0.05
2	6231	303.062775145574	0.05
2	6231	303.074004094	0.05
2	6233	303.162775145574	0.05
2	6235	303.262775145574	0.05
2	6237	303.362775145574	0.05
2	6237	303.367885144	0.05
2	6239	303.462775145574	0.05
2	6241	303.562775145574	0.05
2	6243	303.662775145574	0.05
2	6245	303.762775145574	0.05
2	6247	303.862775145574	0.05
2	6249	303.962775145574	0.05
2	6249	304.006566157	0.05
2	6251	304.062775145574	0.05
2	6253	304.162775145574	0.05
2	6255	304.262775145574	0.05
2	6257	304.362775145574	0.05
2	6259	304.462775145574	0.05
2	6261	304.562775145574	0.05
2	6262	304.64116729	0.05
2	6263	304.662775145574	0.05
2	6265	304.762775145574	0.05
2	6267	304.862775145574	0.05
2	6269	304.962775145574	0.05
2	6270	305.045066053	0.05
2	6271	305.062775145574	0.05
2	6273	305.162775145574	0.05
2	6275	305.262775145574	0.05
2	6277	305.362775145574	0.05
2	6279	305.462775145574	0.05
2	6281	305.562775145574	0.05
2	6281	305.61721774	0.05
2	6283	305.662775145574	0.05
2	6285	305.762775145574	0.05
2	6287	305.862775145574	0.05
2	6287	305.913209926	0.05
2	6289	305.962775145574	0.05
2	6291	306.062775145574	0.05
2	6293	306.162775145574	0.05
2	6295	306.262775145574	0.05
2	6297	306.362775145574	0.05
2	6299	306.462775145574	0.05
2	6299	306.47158726	0.05
2	6301	306.562775145574	0.05
2	6303	306.662775145574	0.05
2	6305	306.762775145574	0.05
2	6307	306.862775145574	0.05
2	6309	306.962775145574	0.05
2	6309	307.030173484	0.05
2	6311	307.062775145574	0.05
2	6313	307.162775145574	0.05
2	6315	307.262775145574	0.05
2	6317	307.362775145574	0.05
2	6318	307.452871531	0.05
2	6319	307.462775145574	0.05
2	6321	307.562775145574	0.05
2	6323	307.662775145574	0.05
2	6325	307.762775145574	0.05
2	6327	307.862775145574	0.05
2	6329	307.962775145574	0.05
2	6329	308.004349735	0.05
2	6331	308.062775145574	0.05
2	6333	308.162775145574	0.05
2	6335	308.262775145574	0.05
2	6337	308.362775145574	0.05
2	6339	308.462775145574	0.05
2	6339	308.501620129	0.05
2	6341	308.562775145574	0.05
2	6343	308.662775145574	0.05
2	6345	308.762775145574	0.05
2	6347	308.862775145574	0.05
2	6349	308.962775145574	0.05
2	6349	309.002168593	0.05
2	6351	309.062775145574	0.05
2	6353	309.162775145574	0.05
2	6355	309.262775145574	0.05
2	6357	309.362775145574	0.05
2	6357	309.420945133	0.05
2	6359	309.462775145574	0.05
2	6361	309.562775145574	0.05
2	6363	309.662775145574	0.05
2	6365	309.762775145574	0.05
2	6365	309.821760427	0.05
2	6367	309.862775145574	0.05
2	6369	309.962775145574	0.05
2	6371	310.062775145574	0.05
2	6371	310.096017913	0.05
2	6373	310.162775145574	0.05
2	6375	310.262775145574	0.05
2	6377	310.362775145574	0.05
2	6379	310.462775145574	0.05
2	6381	310.562775145574	0.05
2	6381	310.584086251	0.05
2	6383	310.662775145574	0.05
2	6385	310.762775145574	0.05
2	6387	310.862775145574	0.05
2	6389	310.962775145574	0.05
2	6391	311.062775145574	0.05
2	6391	311.077832818	0.05
2	6393	311.162775145574	0.05
2	6395	311.262775145574	0.05
2	6397	311.362775145574	0.05
2	6397	311.369984707	0.05
2	6399	311.462775145574	0.05
2	6401	311.562775145574	0.05
2	6403	311.662775145574	0.05
2	6405	311.762775145574	0.05
2	6405	311.773671556	0.05
2	6407	311.862775145574	0.05
2	6409	311.962775145574	0.05
2	6411	312.062775145574	0.05
2	6413	312.162775145574	0.05
2	6415	312.262775145574	0.05
2	6415	312.295516735	0.05
2	6417	312.362775145574	0.05
2	6419	312.462775145574	0.05
2	6420	312.55329292	0.05
2	6421	312.562775145574	0.05
2	6423	312.662775145574	0.05
2	6425	312.762775145574	0.05
2	6427	312.862775145574	0.05
2	6429	312.962775145574	0.05
2	6429	313.034582908	0.05
2	6431	313.062775145574	0.05
2	6433	313.162775145574	0.05
2	6435	313.262775145574	0.05
2	6437	313.362775145574	0.05
2	6439	313.462775145574	0.05
2	6439	313.520344012	0.05
2	6441	313.562775145574	0.05
2	6443	313.662775145574	0.05
2	6445	313.762775145574	0.05
2	6447	313.862775145574	0.05
2	6448	313.948913605	0.05
2	6449	313.962775145574	0.05
2	6451	314.062775145574	0.05
2	6453	314.162775145574	0.05
2	6453	314.22222949	0.05
2	6455	314.262775145574	0.05
2	6457	314.362775145574	0.05
2	6459	314.462775145574	0.05
2	6459	314.515169758	0.05
2	6461	314.562775145574	0.05
2	6463	314.662775145574	0.05
2	6464	314.729900023223	0.05
2	6466	314.762775145574	0.05
2	6468	314.862775145574	0.05
2	6469	314.955300688	0.05
2	6470	314.962775145574	0.05
2	6472	315.062775145574	0.0495
2	6472	315.062775145574	0.0495
2	6474	315.162775145574	0.0495
2	6476	315.262775145574	0.0495
2	6478	315.362775145574	0.0495
2	6480	315.462775145574	0.0495
2	6480	315.528993799	0.0495
2	6482	315.562775145574	0.0495
2	6484	315.662775145574	0.0495
2	6486	315.762775145574	0.0495
2	6488	315.862775145574	0.0495
2	6490	315.962775145574	0.0495
2	6492	316.062775145574	0.0495
2	6492	316.086786478	0.0495
2	6494	316.162775145574	0.0495
2	6496	316.262775145574	0.0495
2	6498	316.362775145574	0.0495
2	6500	316.462775145574	0.0495
2	6501	316.562199811	0.0495
2	6501	316.562775145574	0.0495
3	0	0	0.004
3	943	46.974101355068	0
3	1495	74.230241016595	0.004
3	1708	84.357071746157	0
3	2021	99.412279097409	0.004
3	2147	105.020590408594	0
3	2762	135.1640017823	0.004
3	3204	156.022849076613	0
3	3672	178.581229326722	0.004
3	3854	187.25015216665	0
3	3855	187.272744476254	0.004
3	5193	253.896590562767	0
3	5554	270.078973148815	0.004
3	5793	281.746205199972	0
3	6083	295.75089567848	0.004
3	6464	314.729900023223	0
4	0	0	0.004
4	461	23.08057828677	0
4	490	24.453262600547	0.004
4	864	43.042842394953	0
4	1158	57.629346702579	0.004
4	1389	68.979132871325	0
4	1741	85.905675680204	0.004
4	1807	88.788246276676	0
4	2050	100.552358181889	0.004
4	2213	108.281146962633	0
4	2253	110.237680659675	0.004
4	2381	116.444752743138	0
4	2761	135.13927387083	0.004
4	2850	138.434601938116	0
4	3303	160.783715085468	0.004
4	3522	171.115395265388	0
4	5294	258.860287928654	0.004
4	5845	284.286397536119	0
4	6009	292.452932449471	0.004
5	0	0	0.004
5	943	46.974101355068	0
5	1495	74.230241016595	0.004
5	1708	84.357071746157	0
5	2021	99.412279097409	0.004
5	2147	105.020590408594	0
5	2762	135.1640017823	0.004
5	3204	156.022849076613	0
5	3672	178.581229326722	0.004
5	3854	187.25015216665	0
5	3855	187.272744476254	0.004
5	5193	253.896590562767	0
5	5554	270.078973148815	0.004
5	5793	281.746205199972	0
5	6083	295.75089567848	0.004
5	6464	314.729900023223	0

