version 2
run Mysterio_ex2-0-20211001-15:32:44-3481
attr configname Mysterio_ex2
attr datetime 20211001-15:32:44
attr experiment Mysterio_ex2
attr inifile omnetpp.ini
attr iterationvars ""
attr iterationvarsf ""
attr measurement ""
attr network MysterioCommunication2
attr processid 3481
attr repetition 0
attr replication #0
attr resultdir results
attr runnumber 0
attr seedset 0
param *.host[*].mobility.numeroDrones 2
param *.numHosts 2
param *.host[*].osgModel "\"3d/drone.ive.100.scale.0,0,90.rot\""
param *.basestation.osgModel "\"3d/car.ive.50.scale.0,0,90.rot\""
param *.canvasVisualizer.energyStorageVisualizer.displayEnergyStorages true
param *.host[*].hasStatus true
param *.host[*].energyStorage.typename "\"SimpleEpEnergyStorage\""
param *.host[*].wlan[*].radio.energyConsumer.typename "\"StateBasedEpEnergyConsumer\""
param *.host[*].energyManagement.typename "\"SimpleEpEnergyManagement\""
param *.host[*].energyStorage.nominalCapacity 0.05J
param *.host[*].energyManagement.nodeShutdownCapacity "0.1 * energyStorage.nominalCapacity"
param *.host[*].energyManagement.nodeStartCapacity "0.5 * energyStorage.nominalCapacity"
param *.host[*].energyStorage.initialCapacity 0.05J
param *.host[*].energyGenerator.typename "\"AlternatingEpEnergyGenerator\""
param *.host[*].energyGenerator.powerGeneration 4mW
param *.host[*].energyGenerator.sleepInterval exponential(25s)
param *.host[*].energyGenerator.generationInterval exponential(25s)
param *.host[*].mobility.typename "\"UAVMobility\""
param *.host[*].mobility.changeInterval 1s
param *.host[*].mobility.initialMovementHeading "uniform(0deg, 360deg)"
param *.host[*].mobility.initialMovementElevation "uniform(-90deg, 90deg)"
param *.host[*].mobility.angleDelta uniform(-10deg,10deg)
param *.host[*].mobility.rotationAxisAngle uniform(-10deg,10deg)
param *.host[*].mobility.speed uniform(10mps,20mps)
param *.host[*].mobility.faceForward false
param *.host[*].mobility.initialX 220m
param *.host[*].mobility.initialY 220m
param *.host[*].mobility.initialZ 80m
param *.visualizer.osgVisualizer.typename "\"IntegratedOsgVisualizer\""
param *.visualizer.osgVisualizer.sceneVisualizer.clearColor "\"skyblue\""
param *.visualizer.osgVisualizer.sceneVisualizer.sceneImage "\"showcases/desert\""
param *.visualizer.osgVisualizer.sceneVisualizer.sceneImageSize 5000m
param *.visualizer.osgVisualizer.sceneVisualizer.axisLength 1000m
param *.visualizer.osgVisualizer.sceneVisualizer.sceneMinX -2000m
param *.visualizer.osgVisualizer.sceneVisualizer.sceneMinY -2000m
param *.visualizer.osgVisualizer.sceneVisualizer.sceneMinZ 0m
param *.visualizer.osgVisualizer.sceneVisualizer.sceneMaxX 3000m
param *.visualizer.osgVisualizer.sceneVisualizer.sceneMaxY 3000m
param *.visualizer.osgVisualizer.sceneVisualizer.sceneMaxZ 1000m
param *.visualizer.osgVisualizer.networkNodeVisualizer.displayModuleName false
param *.visualizer.*.mobilityVisualizer.displayMobility true
param *.visualizer.*.mobilityVisualizer.displayPositions true
param *.visualizer.*.mobilityVisualizer.displayOrientations false
param *.visualizer.*.mobilityVisualizer.displayVelocities true
param *.visualizer.*.mobilityVisualizer.displayMovementTrails true
param *.visualizer.*.mobilityVisualizer.animationSpeed 3
param **.constraintAreaMinX 0m
param **.constraintAreaMinY 0m
param **.constraintAreaMinZ 0m
param **.constraintAreaMaxX 1000m
param **.constraintAreaMaxY 1000m
param **.constraintAreaMaxZ 1000m
param **.networkConfiguratorModule "\"\""

vector 0 MysterioCommunication2.host[0].energyStorage residualEnergyCapacity:vector ETV
attr interpolationmode linear
attr source residualEnergyCapacityChanged
attr title "Residual energy capacity, vector"
vector 1 MysterioCommunication2.host[0].energyGenerator powerGeneration:vector ETV
attr interpolationmode sample-hold
attr source powerGenerationChanged
attr title "Power generation, vector"
vector 2 MysterioCommunication2.host[1].energyStorage residualEnergyCapacity:vector ETV
attr interpolationmode linear
attr source residualEnergyCapacityChanged
attr title "Residual energy capacity, vector"
vector 3 MysterioCommunication2.host[1].energyGenerator powerGeneration:vector ETV
attr interpolationmode sample-hold
attr source powerGenerationChanged
attr title "Power generation, vector"
vector 4 MysterioCommunication2.host[0].energyStorage powerGeneration:vector ETV
attr interpolationmode sample-hold
attr source powerGenerationChanged
attr title "Power generation, vector"
vector 5 MysterioCommunication2.host[1].energyStorage powerGeneration:vector ETV
attr interpolationmode sample-hold
attr source powerGenerationChanged
attr title "Power generation, vector"
0	0	0	0.05
0	0	0.1	0.05
0	2	0.186385036	0.05
0	3	0.2	0.05
0	5	0.3	0.05
0	7	0.4	0.05
0	9	0.5	0.05
0	11	0.6	0.05
0	12	0.620567932	0.05
0	13	0.7	0.05
0	15	0.8	0.05
0	17	0.9	0.05
0	19	1	0.05
0	21	1.1	0.05
0	23	1.2	0.05
0	24	1.281357454	0.05
0	25	1.3	0.05
0	27	1.4	0.05
0	29	1.5	0.05
0	31	1.6	0.05
0	33	1.7	0.05
0	35	1.8	0.05
0	37	1.9	0.05
0	38	1.917323914	0.05
0	39	2	0.05
0	41	2.1	0.05
0	43	2.2	0.05
0	45	2.3	0.05
0	47	2.4	0.05
0	48	2.479084033	0.05
0	49	2.5	0.05
0	51	2.6	0.05
0	53	2.7	0.05
0	55	2.8	0.05
0	57	2.9	0.05
0	58	2.99613073	0.05
0	59	3	0.05
0	61	3.1	0.05
0	63	3.2	0.05
0	65	3.3	0.05
0	67	3.4	0.05
0	69	3.5	0.05
0	71	3.6	0.05
0	72	3.604331518	0.05
0	73	3.7	0.05
0	75	3.8	0.05
0	77	3.9	0.05
0	79	4	0.05
0	81	4.1	0.05
0	82	4.137296308	0.05
0	83	4.2	0.05
0	85	4.3	0.05
0	87	4.4	0.05
0	89	4.5	0.05
0	91	4.6	0.05
0	92	4.604758231	0.05
0	93	4.7	0.05
0	95	4.8	0.05
0	97	4.9	0.05
0	99	5	0.05
0	101	5.1	0.05
0	102	5.108116369	0.05
0	103	5.2	0.05
0	105	5.3	0.05
0	107	5.4	0.05
0	109	5.5	0.05
0	111	5.6	0.05
0	112	5.669200024	0.05
0	113	5.7	0.05
0	115	5.8	0.05
0	117	5.9	0.05
0	119	6	0.05
0	121	6.1	0.05
0	123	6.2	0.05
0	124	6.242543122	0.05
0	125	6.3	0.05
0	127	6.4	0.05
0	129	6.5	0.05
0	131	6.6	0.05
0	133	6.7	0.05
0	135	6.8	0.05
0	136	6.845973553	0.05
0	137	6.9	0.05
0	139	7	0.05
0	141	7.1	0.05
0	143	7.2	0.05
0	145	7.3	0.05
0	147	7.4	0.05
0	148	7.482334867	0.05
0	149	7.5	0.05
0	151	7.6	0.05
0	153	7.7	0.05
0	155	7.8	0.05
0	157	7.9	0.05
0	158	7.963921699	0.05
0	159	8	0.05
0	161	8.1	0.05
0	163	8.2	0.05
0	165	8.3	0.05
0	167	8.4	0.05
0	169	8.5	0.05
0	170	8.559064192	0.05
0	171	8.6	0.05
0	173	8.7	0.05
0	175	8.8	0.05
0	177	8.9	0.05
0	179	9	0.05
0	181	9.1	0.05
0	183	9.2	0.05
0	184	9.247489588	0.05
0	185	9.3	0.05
0	187	9.4	0.05
0	189	9.5	0.05
0	191	9.6	0.05
0	193	9.7	0.05
0	195	9.8	0.05
0	197	9.9	0.05
0	198	9.922532233	0.05
0	199	10	0.05
0	201	10.1	0.05
0	203	10.2	0.05
0	205	10.3	0.05
0	206	10.378359247	0.05
0	207	10.4	0.05
0	209	10.5	0.05
0	211	10.6	0.05
0	213	10.7	0.05
0	215	10.8	0.05
0	217	10.9	0.05
0	218	10.902752455	0.05
0	219	11	0.05
0	221	11.1	0.05
0	223	11.2	0.05
0	225	11.3	0.05
0	226	11.36235295	0.05
0	227	11.4	0.05
0	229	11.5	0.05
0	231	11.6	0.05
0	233	11.7	0.05
0	235	11.8	0.05
0	236	11.870955934	0.05
0	237	11.9	0.05
0	239	12	0.05
0	241	12.1	0.05
0	243	12.2	0.05
0	245	12.3	0.05
0	246	12.362034436	0.05
0	247	12.4	0.05
0	249	12.5	0.05
0	251	12.6	0.05
0	252	12.659183617	0.05
0	253	12.7	0.05
0	255	12.8	0.05
0	257	12.9	0.05
0	259	13	0.05
0	260	13.096487596	0.05
0	261	13.1	0.05
0	263	13.2	0.05
0	265	13.3	0.05
0	267	13.4	0.05
0	269	13.5	0.05
0	271	13.6	0.05
0	272	13.615235083	0.05
0	273	13.7	0.05
0	275	13.8	0.05
0	277	13.9	0.05
0	279	14	0.05
0	281	14.1	0.05
0	283	14.2	0.05
0	285	14.3	0.05
0	286	14.3683165	0.05
0	287	14.4	0.05
0	289	14.5	0.05
0	291	14.50697594229	0.05
0	293	14.60697594229	0.05
0	295	14.70697594229	0.05
0	297	14.80697594229	0.05
0	299	14.90697594229	0.05
0	301	15.00697594229	0.05
0	301	15.045059314	0.05
0	303	15.10697594229	0.05
0	305	15.20697594229	0.05
0	307	15.30697594229	0.05
0	309	15.40697594229	0.05
0	311	15.50697594229	0.05
0	311	15.592831384	0.05
0	313	15.60697594229	0.05
0	315	15.70697594229	0.05
0	317	15.80697594229	0.05
0	319	15.90697594229	0.05
0	321	16.00697594229	0.05
0	321	16.068248155	0.05
0	323	16.10697594229	0.05
0	325	16.20697594229	0.05
0	327	16.30697594229	0.05
0	329	16.40697594229	0.05
0	331	16.50697594229	0.05
0	332	16.604977729	0.05
0	333	16.60697594229	0.05
0	335	16.70697594229	0.05
0	337	16.80697594229	0.05
0	339	16.90697594229	0.05
0	341	17.00697594229	0.05
0	341	17.043398728	0.05
0	343	17.10697594229	0.05
0	345	17.20697594229	0.05
0	347	17.30697594229	0.05
0	349	17.40697594229	0.05
0	351	17.50697594229	0.05
0	353	17.60697594229	0.05
0	353	17.610504133	0.05
0	355	17.70697594229	0.05
0	357	17.80697594229	0.05
0	359	17.90697594229	0.05
0	361	18.00697594229	0.05
0	363	18.10697594229	0.05
0	363	18.144937906	0.05
0	365	18.20697594229	0.05
0	367	18.30697594229	0.05
0	369	18.40697594229	0.05
0	371	18.50697594229	0.05
0	371	18.58459048	0.0495
0	371	18.58459048	0.0495
0	373	18.60697594229	0.04958954184916
0	375	18.70697594229	0.04998954184916
0	377	18.80697594229	0.05
0	379	18.90697594229	0.05
0	381	19.00697594229	0.05
0	382	19.100668972	0.05
0	383	19.10697594229	0.05
0	385	19.20697594229	0.05
0	387	19.30697594229	0.05
0	389	19.40697594229	0.05
0	391	19.50697594229	0.05
0	393	19.60697594229	0.05
0	393	19.641634882	0.05
0	395	19.70697594229	0.05
0	397	19.80697594229	0.05
0	399	19.90697594229	0.05
0	401	20.00697594229	0.05
0	403	20.10697594229	0.05
0	403	20.124607975	0.05
0	405	20.20697594229	0.05
0	407	20.30697594229	0.05
0	409	20.40697594229	0.05
0	411	20.50697594229	0.05
0	413	20.60697594229	0.05
0	413	20.614899706	0.05
0	415	20.70697594229	0.05
0	417	20.80697594229	0.05
0	419	20.90697594229	0.05
0	421	21.00697594229	0.05
0	423	21.10697594229	0.05
0	423	21.184785331	0.05
0	425	21.20697594229	0.05
0	427	21.30697594229	0.05
0	429	21.40697594229	0.05
0	431	21.50697594229	0.05
0	433	21.60697594229	0.05
0	435	21.70697594229	0.05
0	437	21.80697594229	0.05
0	437	21.844895143	0.05
0	439	21.90697594229	0.05
0	441	22.00697594229	0.05
0	443	22.10697594229	0.05
0	445	22.20697594229	0.05
0	447	22.30697594229	0.05
0	449	22.40697594229	0.05
0	451	22.50697594229	0.05
0	451	22.520069224	0.05
0	453	22.60697594229	0.05
0	455	22.70697594229	0.05
0	457	22.80697594229	0.05
0	459	22.90697594229	0.05
0	461	23.00697594229	0.05
0	462	23.08057828677	0.05
0	464	23.10697594229	0.05
0	466	23.20697594229	0.05
0	466	23.225007028	0.05
0	468	23.30697594229	0.05
0	470	23.40697594229	0.05
0	472	23.50697594229	0.05
0	474	23.60697594229	0.05
0	476	23.70697594229	0.05
0	478	23.80697594229	0.05
0	478	23.840030404	0.05
0	480	23.90697594229	0.05
0	482	24.00697594229	0.05
0	484	24.10697594229	0.05
0	486	24.20697594229	0.05
0	488	24.30697594229	0.0495
0	488	24.30697594229	0.0495
0	490	24.40697594229	0.0495
0	490	24.479488972	0.0495
0	492	24.50697594229	0.0495
0	494	24.60697594229	0.0495
0	496	24.70697594229	0.0495
0	498	24.80697594229	0.0495
0	500	24.90697594229	0.0495
0	502	25.00697594229	0.0495
0	502	25.034270821	0.0495
0	504	25.10697594229	0.0495
0	506	25.20697594229	0.0495
0	508	25.30697594229	0.0495
0	510	25.40697594229	0.0495
0	512	25.50697594229	0.0495
0	512	25.545031543	0.0495
0	514	25.60697594229	0.0495
0	515	25.654787379751	0.0495
0	517	25.70697594229	0.049708754250156
0	518	25.779787379751	0.05
0	520	25.80697594229	0.05
0	522	25.90697594229	0.05
0	524	26.00697594229	0.05
0	524	26.021417095	0.05
0	526	26.10697594229	0.05
0	528	26.20697594229	0.05
0	530	26.30697594229	0.05
0	532	26.40697594229	0.05
0	534	26.50697594229	0.05
0	534	26.555678263	0.05
0	536	26.60697594229	0.05
0	538	26.70697594229	0.05
0	540	26.80697594229	0.05
0	542	26.90697594229	0.05
0	544	27.00697594229	0.05
0	546	27.10697594229	0.0495
0	546	27.10697594229	0.0495
0	546	27.175274593	0.04977319460284
0	548	27.20697594229	0.0499
0	550	27.30697594229	0.05
0	552	27.40697594229	0.05
0	554	27.50697594229	0.05
0	556	27.60697594229	0.05
0	558	27.70697594229	0.05
0	560	27.80697594229	0.05
0	560	27.883917268	0.05
0	562	27.90697594229	0.05
0	564	28.00697594229	0.05
0	566	28.10697594229	0.05
0	568	28.20697594229	0.05
0	570	28.30697594229	0.05
0	572	28.40697594229	0.05
0	572	28.42971868	0.05
0	574	28.50697594229	0.0495
0	574	28.50697594229	0.0495
0	576	28.60697594229	0.0499
0	578	28.70697594229	0.05
0	580	28.80697594229	0.05
0	582	28.90697594229	0.05
0	582	28.915778878	0.05
0	584	29.00697594229	0.05
0	586	29.10697594229	0.05
0	588	29.20697594229	0.05
0	590	29.30697594229	0.05
0	590	29.391091807	0.05
0	592	29.40697594229	0.05
0	594	29.50697594229	0.05
0	596	29.60697594229	0.05
0	598	29.70697594229	0.05
0	600	29.80697594229	0.05
0	600	29.853958528	0.05
0	602	29.90697594229	0.0495
0	602	29.90697594229	0.0495
0	604	30.00697594229	0.0499
0	606	30.10697594229	0.05
0	608	30.20697594229	0.05
0	610	30.30697594229	0.05
0	612	30.40697594229	0.05
0	612	30.440245228	0.05
0	614	30.50697594229	0.05
0	616	30.60697594229	0.05
0	618	30.70697594229	0.05
0	620	30.80697594229	0.05
0	622	30.90697594229	0.05
0	624	31.00697594229	0.05
0	626	31.10697594229	0.05
0	626	31.120289944	0.05
0	628	31.20697594229	0.05
0	630	31.30697594229	0.05
0	632	31.40697594229	0.0495
0	632	31.40697594229	0.0495
0	634	31.50697594229	0.0499
0	636	31.60697594229	0.05
0	638	31.70697594229	0.05
0	640	31.80697594229	0.05
0	640	31.819907803	0.05
0	642	31.90697594229	0.05
0	644	32.00697594229	0.05
0	646	32.10697594229	0.05
0	648	32.20697594229	0.05
0	650	32.30697594229	0.05
0	650	32.330348434	0.05
0	652	32.40697594229	0.05
0	654	32.50697594229	0.05
0	656	32.60697594229	0.05
0	658	32.70697594229	0.05
0	658	32.791836748	0.05
0	660	32.80697594229	0.0495
0	660	32.80697594229	0.0495
0	662	32.90697594229	0.0499
0	664	33.00697594229	0.05
0	666	33.10697594229	0.05
0	668	33.20697594229	0.05
0	668	33.244141126	0.05
0	670	33.30697594229	0.05
0	672	33.40697594229	0.05
0	674	33.50697594229	0.05
0	674	33.528973351	0.05
0	676	33.60697594229	0.05
0	678	33.70697594229	0.05
0	680	33.80697594229	0.05
0	682	33.90697594229	0.05
0	682	33.982934491	0.05
0	684	34.00697594229	0.05
0	686	34.10697594229	0.05
0	688	34.20697594229	0.0495
0	688	34.20697594229	0.0495
0	690	34.30697594229	0.0499
0	692	34.40697594229	0.05
0	692	34.489851541	0.05
0	694	34.50697594229	0.05
0	696	34.60697594229	0.05
0	698	34.70697594229	0.05
0	698	34.787706577	0.05
0	700	34.80697594229	0.05
0	702	34.90697594229	0.05
0	704	35.00697594229	0.05
0	704	35.083226551	0.05
0	706	35.10697594229	0.05
0	708	35.20697594229	0.05
0	710	35.30697594229	0.05
0	712	35.40697594229	0.05
0	714	35.50697594229	0.05
0	716	35.60697594229	0.0495
0	716	35.60697594229	0.0495
0	716	35.616531772	0.04953822331884
0	718	35.70697594229	0.0499
0	720	35.80697594229	0.05
0	722	35.90697594229	0.05
0	724	36.00697594229	0.05
0	726	36.10697594229	0.05
0	726	36.118279927	0.05
0	728	36.20697594229	0.05
0	730	36.30697594229	0.05
0	732	36.40697594229	0.05
0	734	36.50697594229	0.05
0	734	36.594224899	0.05
0	736	36.60697594229	0.05
0	738	36.70697594229	0.05
0	740	36.80697594229	0.05
0	740	36.854549662	0.05
0	742	36.90697594229	0.0495
0	742	36.90697594229	0.0495
0	744	37.00697594229	0.0499
0	746	37.10697594229	0.05
0	748	37.20697594229	0.05
0	750	37.30697594229	0.05
0	750	37.379937646	0.05
0	752	37.40697594229	0.05
0	754	37.50697594229	0.05
0	756	37.60697594229	0.05
0	758	37.70697594229	0.05
0	760	37.80697594229	0.05
0	762	37.90697594229	0.05
0	762	37.914350671	0.05
0	764	38.00697594229	0.05
0	766	38.10697594229	0.05
0	768	38.20697594229	0.05
0	770	38.30697594229	0.05
0	772	38.40697594229	0.0495
0	772	38.40697594229	0.0495
0	772	38.434326469	0.04960940210684
0	774	38.50697594229	0.0499
0	776	38.60697594229	0.05
0	778	38.70697594229	0.05
0	780	38.80697594229	0.05
0	782	38.90697594229	0.05
0	784	39.00697594229	0.05
0	784	39.044346148	0.05
0	786	39.10697594229	0.05
0	788	39.20697594229	0.05
0	790	39.30697594229	0.05
0	792	39.40697594229	0.05
0	794	39.50697594229	0.05
0	794	39.588503818	0.05
0	796	39.60697594229	0.05
0	798	39.70697594229	0.05
0	800	39.80697594229	0.0495
0	800	39.80697594229	0.0495
0	802	39.90697594229	0.0499
0	804	40.00697594229	0.05
0	804	40.088745187	0.05
0	806	40.10697594229	0.05
0	808	40.20697594229	0.05
0	810	40.30697594229	0.05
0	812	40.40697594229	0.05
0	814	40.50697594229	0.05
0	816	40.60697594229	0.05
0	818	40.70697594229	0.05
0	820	40.80697594229	0.05
0	820	40.835027323	0.05
0	822	40.90697594229	0.05
0	824	41.00697594229	0.05
0	826	41.10697594229	0.05
0	828	41.20697594229	0.05
0	830	41.30697594229	0.0495
0	830	41.30697594229	0.0495
0	832	41.40697594229	0.0499
0	834	41.50697594229	0.05
0	834	41.579674051	0.05
0	836	41.60697594229	0.05
0	838	41.70697594229	0.05
0	840	41.80697594229	0.05
0	842	41.90697594229	0.05
0	844	42.00697594229	0.05
0	844	42.09861307	0.05
0	846	42.10697594229	0.05
0	848	42.20697594229	0.05
0	850	42.30697594229	0.05
0	852	42.40697594229	0.05
0	854	42.50697594229	0.05
0	854	42.590202646	0.05
0	856	42.60697594229	0.05
0	858	42.70697594229	0.0495
0	858	42.70697594229	0.0495
0	860	42.80697594229	0.0499
0	860	42.881352154	0.05
0	862	42.90697594229	0.05
0	864	43.00697594229	0.05
0	866	43.10697594229	0.05
0	868	43.20697594229	0.05
0	870	43.30697594229	0.05
0	872	43.40697594229	0.05
0	872	43.430065996	0.05
0	874	43.50697594229	0.05
0	876	43.60697594229	0.05
0	878	43.70697594229	0.05
0	880	43.80697594229	0.05
0	882	43.90697594229	0.05
0	882	43.939332829	0.05
0	884	44.00697594229	0.05
0	886	44.10697594229	0.0495
0	886	44.10697594229	0.0495
0	888	44.20697594229	0.0499
0	890	44.30697594229	0.05
0	892	44.40697594229	0.05
0	892	44.491100149	0.05
0	894	44.50697594229	0.05
0	896	44.60697594229	0.05
0	898	44.70697594229	0.05
0	900	44.80697594229	0.05
0	900	44.887740145	0.05
0	902	44.90697594229	0.05
0	904	45.00697594229	0.05
0	906	45.10697594229	0.05
0	908	45.20697594229	0.05
0	908	45.298106242	0.05
0	910	45.30697594229	0.05
0	912	45.40697594229	0.05
0	914	45.50697594229	0.0495
0	914	45.50697594229	0.0495
0	916	45.60697594229	0.0499
0	918	45.70697594229	0.05
0	920	45.80697594229	0.05
0	920	45.8177173	0.05
0	921	45.876636690591	0.05
0	923	45.976636690591	0.05
0	925	46.076636690591	0.05
0	927	46.176636690591	0.05
0	929	46.276636690591	0.05
0	931	46.376636690591	0.05
0	932	46.439493556	0.05
0	933	46.476636690591	0.05
0	935	46.576636690591	0.05
0	937	46.676636690591	0.05
0	939	46.776636690591	0.05
0	941	46.876636690591	0.05
0	944	46.976636690591	0.0495
0	944	46.976636690591	0.0495
0	946	47.076636690591	0.0499
0	948	47.176636690591	0.05
0	949	47.224172569	0.05
0	950	47.276636690591	0.05
0	952	47.376636690591	0.05
0	954	47.476636690591	0.05
0	956	47.576636690591	0.05
0	958	47.676636690591	0.05
0	960	47.776636690591	0.05
0	961	47.841915442	0.05
0	962	47.876636690591	0.05
0	964	47.976636690591	0.05
0	966	48.076636690591	0.05
0	968	48.176636690591	0.05
0	970	48.276636690591	0.05
0	971	48.326124208	0.05
0	972	48.376636690591	0.0495
0	972	48.376636690591	0.0495
0	974	48.476636690591	0.0499
0	976	48.576636690591	0.05
0	978	48.676636690591	0.05
0	980	48.776636690591	0.05
0	982	48.876636690591	0.05
0	983	48.917509558	0.05
0	985	48.976636690591	0.05
0	987	49.076636690591	0.05
0	989	49.176636690591	0.05
0	991	49.276636690591	0.05
0	993	49.376636690591	0.05
0	994	49.433556721	0.05
0	995	49.476636690591	0.05
0	997	49.576636690591	0.05
0	1000	49.676636690591	0.05
0	1002	49.776636690591	0.0495
0	1002	49.776636690591	0.0495
0	1004	49.876636690591	0.0499
0	1004	49.898440417	0.049987214905636
0	1006	49.976636690591	0.05
0	1008	50.076636690591	0.05
0	1010	50.176636690591	0.05
0	1012	50.276636690591	0.05
0	1013	50.351336464	0.05
0	1014	50.376636690591	0.05
0	1016	50.476636690591	0.05
0	1018	50.576636690591	0.05
0	1020	50.676636690591	0.05
0	1022	50.776636690591	0.05
0	1022	50.829715639	0.05
0	1024	50.876636690591	0.05
0	1026	50.976636690591	0.05
0	1028	51.076636690591	0.05
0	1030	51.176636690591	0.0495
0	1030	51.176636690591	0.0495
0	1032	51.276636690591	0.0499
0	1034	51.376636690591	0.05
0	1034	51.37739134	0.05
0	1036	51.476636690591	0.05
0	1038	51.576636690591	0.05
0	1040	51.676636690591	0.05
0	1042	51.776636690591	0.05
0	1044	51.876636690591	0.05
0	1044	51.918592756	0.05
0	1046	51.976636690591	0.05
0	1048	52.076636690591	0.05
0	1050	52.176636690591	0.05
0	1052	52.276636690591	0.05
0	1054	52.376636690591	0.05
0	1054	52.427592418	0.05
0	1056	52.476636690591	0.05
0	1058	52.576636690591	0.0495
0	1058	52.576636690591	0.0495
0	1060	52.676636690591	0.0499
0	1062	52.776636690591	0.05
0	1064	52.876636690591	0.05
0	1066	52.976636690591	0.05
0	1068	53.076636690591	0.05
0	1068	53.080541722	0.05
0	1070	53.176636690591	0.05
0	1072	53.276636690591	0.05
0	1074	53.376636690591	0.05
0	1076	53.476636690591	0.05
0	1076	53.511827251	0.05
0	1078	53.576636690591	0.05
0	1080	53.676636690591	0.05
0	1082	53.776636690591	0.05
0	1084	53.876636690591	0.05
0	1086	53.976636690591	0.05
0	1086	54.032621011	0.05
0	1088	54.076636690591	0.05
0	1090	54.176636690591	0.05
0	1092	54.276636690591	0.05
0	1094	54.376636690591	0.05
0	1095	54.449848321	0.05
0	1096	54.476636690591	0.05
0	1098	54.576636690591	0.05
0	1100	54.676636690591	0.05
0	1102	54.776636690591	0.05
0	1104	54.876636690591	0.05
0	1106	54.976636690591	0.05
0	1108	55.076636690591	0.05
0	1108	55.122544237	0.05
0	1110	55.176636690591	0.05
0	1112	55.276636690591	0.05
0	1114	55.376636690591	0.05
0	1116	55.476636690591	0.0495
0	1116	55.476636690591	0.0495
0	1118	55.576636690591	0.0499
0	1120	55.676636690591	0.05
0	1121	55.76009416	0.05
0	1122	55.776636690591	0.05
0	1124	55.876636690591	0.05
0	1126	55.976636690591	0.05
0	1128	56.076636690591	0.05
0	1130	56.176636690591	0.05
0	1132	56.276636690591	0.05
0	1132	56.339675527	0.05
0	1134	56.376636690591	0.05
0	1136	56.476636690591	0.05
0	1138	56.576636690591	0.05
0	1140	56.676636690591	0.05
0	1142	56.776636690591	0.05
0	1142	56.827865119	0.05
0	1144	56.876636690591	0.0495
0	1144	56.876636690591	0.0495
0	1146	56.976636690591	0.0499
0	1148	57.076636690591	0.05
0	1150	57.176636690591	0.05
0	1151	57.271948921	0.05
0	1152	57.276636690591	0.05
0	1154	57.376636690591	0.05
0	1156	57.476636690591	0.05
0	1158	57.576636690591	0.05
0	1160	57.676636690591	0.05
0	1162	57.776636690591	0.05
0	1162	57.830866621	0.05
0	1164	57.876636690591	0.05
0	1166	57.976636690591	0.05
0	1168	58.076636690591	0.05
0	1170	58.176636690591	0.05
0	1172	58.276636690591	0.05
0	1172	58.316843974	0.05
0	1174	58.376636690591	0.05
0	1176	58.476636690591	0.05
0	1178	58.576636690591	0.05
0	1180	58.676636690591	0.05
0	1182	58.776636690591	0.05
0	1182	58.818438754	0.05
0	1184	58.876636690591	0.05
0	1186	58.976636690591	0.05
0	1188	59.076636690591	0.05
0	1190	59.176636690591	0.05
0	1192	59.276636690591	0.05
0	1192	59.318221984	0.05
0	1194	59.376636690591	0.05
0	1196	59.476636690591	0.05
0	1198	59.576636690591	0.05
0	1200	59.676636690591	0.05
0	1202	59.776636690591	0.0495
0	1202	59.776636690591	0.0495
0	1204	59.876636690591	0.0499
0	1204	59.891855794	0.049960876413636
0	1206	59.976636690591	0.05
0	1208	60.076636690591	0.05
0	1210	60.176636690591	0.05
0	1212	60.276636690591	0.05
0	1214	60.376636690591	0.05
0	1216	60.476636690591	0.05
0	1216	60.493517617	0.05
0	1218	60.576636690591	0.05
0	1220	60.676636690591	0.05
0	1222	60.776636690591	0.05
0	1224	60.876636690591	0.05
0	1224	60.885029803	0.05
0	1226	60.976636690591	0.05
0	1228	61.076636690591	0.05
0	1229	61.161728323	0.0495
0	1229	61.161728323	0.0495
0	1230	61.176636690591	0.049559633470364
0	1232	61.276636690591	0.049959633470364
0	1234	61.376636690591	0.05
0	1236	61.476636690591	0.05
0	1238	61.576636690591	0.05
0	1238	61.632582997	0.05
0	1240	61.676636690591	0.05
0	1242	61.776636690591	0.05
0	1244	61.876636690591	0.05
0	1244	61.924693126	0.05
0	1246	61.976636690591	0.05
0	1248	62.076636690591	0.05
0	1250	62.176636690591	0.05
0	1252	62.276636690591	0.05
0	1254	62.376636690591	0.05
0	1256	62.476636690591	0.05
0	1256	62.480778358	0.05
0	1258	62.576636690591	0.05
0	1260	62.676636690591	0.05
0	1262	62.776636690591	0.05
0	1264	62.876636690591	0.05
0	1266	62.976636690591	0.05
0	1266	63.036740281	0.05
0	1268	63.076636690591	0.05
0	1270	63.176636690591	0.05
0	1272	63.276636690591	0.05
0	1272	63.306538537	0.05
0	1274	63.376636690591	0.05
0	1276	63.476636690591	0.05
0	1278	63.576636690591	0.05
0	1280	63.676636690591	0.05
0	1282	63.776636690591	0.05
0	1284	63.876636690591	0.05
0	1284	63.924428917	0.05
0	1286	63.976636690591	0.05
0	1288	64.076636690591	0.05
0	1290	64.176636690591	0.05
0	1292	64.276636690591	0.05
0	1294	64.376636690591	0.05
0	1296	64.476636690591	0.05
0	1296	64.503507493	0.05
0	1298	64.576636690591	0.05
0	1300	64.676636690591	0.05
0	1302	64.776636690591	0.05
0	1304	64.876636690591	0.05
0	1306	64.976636690591	0.05
0	1306	65.041682605	0.05
0	1308	65.076636690591	0.05
0	1310	65.176636690591	0.05
0	1312	65.276636690591	0.05
0	1314	65.376636690591	0.0495
0	1314	65.376636690591	0.0495
0	1316	65.476636690591	0.0499
0	1318	65.576636690591	0.05
0	1320	65.676636690591	0.05
0	1321	65.756485117	0.05
0	1322	65.776636690591	0.05
0	1324	65.876636690591	0.05
0	1326	65.976636690591	0.05
0	1328	66.076636690591	0.05
0	1330	66.176636690591	0.05
0	1332	66.276636690591	0.05
0	1334	66.376636690591	0.05
0	1336	66.476636690591	0.05
0	1336	66.503131474	0.05
0	1338	66.576636690591	0.05
0	1340	66.676636690591	0.05
0	1342	66.776636690591	0.05
0	1344	66.876636690591	0.0495
0	1344	66.876636690591	0.0495
0	1346	66.976636690591	0.0499
0	1348	67.076636690591	0.05
0	1348	67.077852799	0.05
0	1350	67.176636690591	0.05
0	1352	67.276636690591	0.05
0	1354	67.376636690591	0.05
0	1356	67.476636690591	0.05
0	1358	67.576636690591	0.05
0	1358	67.593516445	0.05
0	1360	67.676636690591	0.05
0	1362	67.776636690591	0.05
0	1364	67.876636690591	0.05
0	1366	67.976636690591	0.05
0	1368	68.076636690591	0.05
0	1369	68.154759745	0.05
0	1370	68.176636690591	0.05
0	1372	68.276636690591	0.0495
0	1372	68.276636690591	0.0495
0	1374	68.376636690591	0.0499
0	1376	68.476636690591	0.05
0	1378	68.576636690591	0.05
0	1378	68.601340729	0.05
0	1380	68.676636690591	0.05
0	1382	68.776636690591	0.05
0	1384	68.876636690591	0.05
0	1386	68.976636690591	0.05
0	1387	69.06643657	0.05
0	1388	69.076636690591	0.05
0	1390	69.176636690591	0.05
0	1392	69.276636690591	0.05
0	1394	69.376636690591	0.05
0	1396	69.476636690591	0.05
0	1397	69.565271566	0.05
0	1398	69.576636690591	0.05
0	1400	69.676636690591	0.0495
0	1400	69.676636690591	0.0495
0	1402	69.776636690591	0.0499
0	1404	69.876636690591	0.05
0	1406	69.976636690591	0.05
0	1408	70.076636690591	0.05
0	1408	70.103578315	0.05
0	1410	70.176636690591	0.05
0	1412	70.276636690591	0.05
0	1414	70.376636690591	0.05
0	1416	70.476636690591	0.05
0	1418	70.576636690591	0.05
0	1419	70.6673023	0.05
0	1420	70.676636690591	0.05
0	1422	70.776636690591	0.05
0	1424	70.876636690591	0.05
0	1426	70.976636690591	0.05
0	1428	71.076636690591	0.05
0	1429	71.176150414	0.0495
0	1429	71.176150414	0.0495
0	1430	71.176636690591	0.049501945106364
0	1432	71.276636690591	0.049901945106364
0	1434	71.376636690591	0.05
0	1436	71.476636690591	0.05
0	1438	71.576636690591	0.05
0	1440	71.676636690591	0.05
0	1440	71.679313459	0.05
0	1442	71.776636690591	0.05
0	1444	71.876636690591	0.05
0	1446	71.976636690591	0.05
0	1448	72.076636690591	0.05
0	1450	72.176636690591	0.05
0	1450	72.230185528	0.05
0	1452	72.276636690591	0.05
0	1454	72.376636690591	0.05
0	1456	72.476636690591	0.05
0	1458	72.576636690591	0.0495
0	1458	72.576636690591	0.0495
0	1460	72.676636690591	0.0499
0	1462	72.776636690591	0.05
0	1463	72.817393668678	0.05
0	1464	72.884970466	0.05
0	1465	72.917393668678	0.05
0	1467	73.017393668678	0.05
0	1469	73.117393668678	0.05
0	1471	73.217393668678	0.05
0	1473	73.317393668678	0.05
0	1474	73.399982737	0.05
0	1475	73.417393668678	0.05
0	1477	73.517393668678	0.05
0	1478	73.525843820817	0.05
0	1480	73.617393668678	0.05
0	1482	73.717393668678	0.05
0	1484	73.817393668678	0.05
0	1486	73.917393668678	0.05
0	1486	73.921701889	0.05
0	1488	74.017393668678	0.05
0	1490	74.117393668678	0.05
0	1492	74.217393668678	0.05
0	1494	74.317393668678	0.05
0	1496	74.417393668678	0.05
0	1497	74.455799152	0.05
0	1498	74.517393668678	0.05
0	1500	74.617393668678	0.05
0	1502	74.717393668678	0.05
0	1504	74.817393668678	0.05
0	1506	74.917393668678	0.05
0	1508	75.017393668678	0.05
0	1509	75.073951336	0.05
0	1510	75.117393668678	0.05
0	1512	75.217393668678	0.05
0	1514	75.317393668678	0.05
0	1516	75.417393668678	0.0495
0	1516	75.417393668678	0.0495
0	1518	75.517393668678	0.0495
0	1519	75.588409606	0.0495
0	1520	75.617393668678	0.0495
0	1522	75.717393668678	0.0495
0	1524	75.817393668678	0.0495
0	1526	75.917393668678	0.0495
0	1528	76.017393668678	0.0495
0	1530	76.117393668678	0.0495
0	1531	76.162127185	0.0495
0	1532	76.217393668678	0.0495
0	1534	76.317393668678	0.0495
0	1536	76.417393668678	0.0495
0	1538	76.517393668678	0.0495
0	1540	76.617393668678	0.0495
0	1541	76.661601031	0.0495
0	1542	76.717393668678	0.0495
0	1544	76.817393668678	0.049005
0	1544	76.817393668678	0.049005
0	1546	76.917393668678	0.049005
0	1548	77.017393668678	0.049005
0	1550	77.117393668678	0.049005
0	1551	77.210054377	0.049005
0	1552	77.217393668678	0.049005
0	1554	77.317393668678	0.049005
0	1556	77.417393668678	0.049005
0	1558	77.517393668678	0.049005
0	1560	77.617393668678	0.049005
0	1561	77.678270995	0.049005
0	1562	77.717393668678	0.049005
0	1564	77.817393668678	0.049005
0	1566	77.917393668678	0.049005
0	1568	78.017393668678	0.049005
0	1570	78.117393668678	0.049005
0	1571	78.159382726	0.049005
0	1572	78.217393668678	0.04851495
0	1572	78.217393668678	0.04851495
0	1574	78.317393668678	0.04851495
0	1576	78.417393668678	0.04851495
0	1578	78.517393668678	0.04851495
0	1580	78.617393668678	0.04851495
0	1582	78.717393668678	0.04851495
0	1582	78.725486002	0.04851495
0	1584	78.817393668678	0.04851495
0	1586	78.917393668678	0.04851495
0	1588	79.017393668678	0.04851495
0	1590	79.117393668678	0.04851495
0	1592	79.195571099388	0.04851495
0	1593	79.251565048	0.04851495
0	1594	79.295571099388	0.04851495
0	1596	79.395571099388	0.04851495
0	1598	79.495571099388	0.04851495
0	1600	79.595571099388	0.04851495
0	1602	79.695571099388	0.0480298005
0	1602	79.695571099388	0.0480298005
0	1603	79.765427329	0.0480298005
0	1604	79.795571099388	0.0480298005
0	1606	79.895571099388	0.0480298005
0	1608	79.995571099388	0.0480298005
0	1610	80.095571099388	0.0480298005
0	1612	80.195571099388	0.0480298005
0	1612	80.244293485	0.0480298005
0	1614	80.295571099388	0.0480298005
0	1616	80.395571099388	0.0480298005
0	1618	80.495571099388	0.0480298005
0	1620	80.595571099388	0.0480298005
0	1622	80.695571099388	0.0480298005
0	1622	80.737113661	0.0480298005
0	1624	80.795571099388	0.0480298005
0	1626	80.895571099388	0.0480298005
0	1628	80.995571099388	0.0480298005
0	1630	81.095571099388	0.047549502495
0	1630	81.095571099388	0.047549502495
0	1632	81.195571099388	0.047549502495
0	1632	81.228549352	0.047549502495
0	1634	81.295571099388	0.047549502495
0	1636	81.395571099388	0.047549502495
0	1638	81.495571099388	0.047549502495
0	1640	81.595571099388	0.047549502495
0	1641	81.670921858	0.047549502495
0	1642	81.695571099388	0.047549502495
0	1644	81.795571099388	0.047549502495
0	1646	81.895571099388	0.047549502495
0	1647	81.956484229	0.047549502495
0	1648	81.995571099388	0.047549502495
0	1650	82.095571099388	0.047549502495
0	1652	82.195571099388	0.047549502495
0	1654	82.295571099388	0.047549502495
0	1656	82.395571099388	0.047549502495
0	1658	82.495571099388	0.04707400747005
0	1658	82.495571099388	0.04707400747005
0	1658	82.523823811	0.04707400747005
0	1660	82.595571099388	0.04707400747005
0	1662	82.695571099388	0.04707400747005
0	1664	82.795571099388	0.04707400747005
0	1666	82.895571099388	0.04707400747005
0	1667	82.984055281	0.04707400747005
0	1668	82.995571099388	0.04707400747005
0	1670	83.095571099388	0.04707400747005
0	1672	83.195571099388	0.04707400747005
0	1674	83.295571099388	0.04707400747005
0	1676	83.395571099388	0.04707400747005
0	1678	83.495571099388	0.04707400747005
0	1678	83.521383325	0.04707400747005
0	1680	83.595571099388	0.04707400747005
0	1682	83.695571099388	0.04707400747005
0	1684	83.795571099388	0.04707400747005
0	1686	83.895571099388	0.04660326739535
0	1686	83.895571099388	0.04660326739535
0	1688	83.995571099388	0.04660326739535
0	1689	84.055791514	0.04660326739535
0	1690	84.095571099388	0.04660326739535
0	1692	84.195571099388	0.04660326739535
0	1694	84.295571099388	0.04660326739535
0	1696	84.395571099388	0.04660326739535
0	1697	84.493035193	0.04660326739535
0	1698	84.495571099388	0.04660326739535
0	1700	84.595571099388	0.04660326739535
0	1702	84.695571099388	0.04660326739535
0	1704	84.795571099388	0.04660326739535
0	1706	84.895571099388	0.04660326739535
0	1706	84.93412102	0.04660326739535
0	1708	84.995571099388	0.04660326739535
0	1710	85.095571099388	0.04660326739535
0	1712	85.195571099388	0.04660326739535
0	1712	85.223622991	0.04660326739535
0	1714	85.295571099388	0.04660326739535
0	1716	85.395571099388	0.04660326739535
0	1718	85.495571099388	0.04660326739535
0	1720	85.595571099388	0.04660326739535
0	1722	85.695571099388	0.04660326739535
0	1722	85.704119737	0.04660326739535
0	1724	85.795571099388	0.04660326739535
0	1726	85.895571099388	0.04660326739535
0	1728	85.995571099388	0.04660326739535
0	1730	86.095571099388	0.04660326739535
0	1731	86.183552557	0.04660326739535
0	1732	86.195571099388	0.04660326739535
0	1734	86.295571099388	0.04660326739535
0	1736	86.395571099388	0.04660326739535
0	1738	86.495571099388	0.04660326739535
0	1740	86.595571099388	0.04660326739535
0	1741	86.65189948	0.046137234721396
0	1741	86.65189948	0.046137234721396
0	1742	86.691722081474	0.046137234721396
0	1744	86.791722081474	0.046137234721396
0	1746	86.891722081474	0.046137234721396
0	1748	86.991722081474	0.046137234721396
0	1750	87.091722081474	0.046137234721396
0	1750	87.117331123	0.046137234721396
0	1752	87.191722081474	0.046137234721396
0	1754	87.291722081474	0.046137234721396
0	1756	87.391722081474	0.046137234721396
0	1756	87.408153817	0.046137234721396
0	1758	87.491722081474	0.046137234721396
0	1760	87.591722081474	0.046137234721396
0	1762	87.691722081474	0.046137234721396
0	1764	87.791722081474	0.046137234721396
0	1765	87.876998584	0.046137234721396
0	1766	87.891722081474	0.046137234721396
0	1768	87.991722081474	0.045675862374182
0	1768	87.991722081474	0.045675862374182
0	1770	88.091722081474	0.045675862374182
0	1772	88.191722081474	0.045675862374182
0	1774	88.291722081474	0.045675862374182
0	1776	88.391722081474	0.045675862374182
0	1778	88.491722081474	0.045675862374182
0	1778	88.496629336	0.045675862374182
0	1780	88.591722081474	0.045675862374182
0	1782	88.691722081474	0.045675862374182
0	1784	88.791722081474	0.045675862374182
0	1786	88.891722081474	0.045675862374182
0	1788	88.991722081474	0.045675862374182
0	1789	89.06732038	0.045675862374182
0	1790	89.091722081474	0.045675862374182
0	1792	89.191722081474	0.045675862374182
0	1794	89.291722081474	0.045675862374182
0	1796	89.391722081474	0.045675862374182
0	1798	89.491722081474	0.04521910375044
0	1798	89.491722081474	0.04521910375044
0	1799	89.549625784	0.04521910375044
0	1800	89.591722081474	0.04521910375044
0	1802	89.691722081474	0.04521910375044
0	1804	89.791722081474	0.04521910375044
0	1806	89.891722081474	0.04521910375044
0	1808	89.991722081474	0.04521910375044
0	1810	90.091722081474	0.04521910375044
0	1810	90.126659854	0.04521910375044
0	1812	90.191722081474	0.04521910375044
0	1814	90.291722081474	0.04521910375044
0	1816	90.391722081474	0.04521910375044
0	1818	90.491722081474	0.04521910375044
0	1820	90.591722081474	0.04521910375044
0	1820	90.594976432	0.04521910375044
0	1822	90.691722081474	0.04521910375044
0	1824	90.791722081474	0.04521910375044
0	1826	90.891722081474	0.044766912712936
0	1826	90.891722081474	0.044766912712936
0	1828	90.991722081474	0.044766912712936
0	1830	91.091722081474	0.044766912712936
0	1830	91.099253938	0.044766912712936
0	1832	91.191722081474	0.044766912712936
0	1834	91.291722081474	0.044766912712936
0	1836	91.391722081474	0.044766912712936
0	1838	91.491722081474	0.044766912712936
0	1840	91.591722081474	0.044766912712936
0	1842	91.691722081474	0.044766912712936
0	1842	91.718527648	0.044766912712936
0	1844	91.791722081474	0.044766912712936
0	1846	91.891722081474	0.044766912712936
0	1848	91.991722081474	0.044766912712936
0	1850	92.091722081474	0.044766912712936
0	1852	92.191722081474	0.044766912712936
0	1854	92.291722081474	0.044766912712936
0	1856	92.391722081474	0.044319243585806
0	1856	92.391722081474	0.044319243585806
0	1856	92.3984542	0.044319243585806
0	1858	92.491722081474	0.044319243585806
0	1860	92.591722081474	0.044319243585806
0	1862	92.691722081474	0.044319243585806
0	1864	92.791722081474	0.044319243585806
0	1866	92.891722081474	0.044319243585806
0	1868	92.991722081474	0.044319243585806
0	1868	92.993938687	0.044319243585806
0	1870	93.091722081474	0.044319243585806
0	1871	93.143108116102	0.044319243585806
0	1873	93.243108116102	0.044319243585806
0	1875	93.343108116102	0.044319243585806
0	1877	93.443108116102	0.044319243585806
0	1879	93.543108116102	0.044319243585806
0	1880	93.63920101	0.044319243585806
0	1881	93.643108116102	0.044319243585806
0	1883	93.743108116102	0.044319243585806
0	1885	93.843108116102	0.044319243585806
0	1887	93.943108116102	0.044319243585806
0	1889	94.043108116102	0.044319243585806
0	1891	94.143108116102	0.044319243585806
0	1893	94.243108116102	0.044319243585806
0	1894	94.32107155	0.044319243585806
0	1895	94.343108116102	0.044319243585806
0	1897	94.443108116102	0.044319243585806
0	1899	94.543108116102	0.044319243585806
0	1901	94.643108116102	0.044319243585806
0	1903	94.743108116102	0.044319243585806
0	1905	94.843108116102	0.044319243585806
0	1906	94.918482085	0.044319243585806
0	1907	94.943108116102	0.044319243585806
0	1909	94.948921357954	0.044319243585806
0	1910	94.994110461502	0.0445
0	1911	95.043108116102	0.0446959906184
0	1913	95.119110461502	0.045
0	1914	95.143108116102	0.044645030712216
0	1914	95.143108116102	0.044645030712216
0	1916	95.243108116102	0.045045030712216
0	1917	95.244110461502	0.0455
0	1919	95.343108116102	0.0458959906184
0	1921	95.369110461502	0.046
0	1922	95.443108116102	0.0462959906184
0	1924	95.494110461502	0.0465
0	1925	95.543108116102	0.0466959906184
0	1927	95.619110461502	0.047
0	1927	95.62545274	0.047025369113992
0	1928	95.643108116102	0.0470959906184
0	1930	95.743108116102	0.0474959906184
0	1931	95.744110461502	0.0475
0	1933	95.843108116102	0.0478959906184
0	1935	95.869110461502	0.048
0	1936	95.943108116102	0.0482959906184
0	1938	95.994110461502	0.0485
0	1939	96.043108116102	0.0486959906184
0	1941	96.119110461502	0.049
0	1942	96.143108116102	0.0490959906184
0	1944	96.243108116102	0.0494959906184
0	1945	96.244110461502	0.0495
0	1947	96.343108116102	0.0498959906184
0	1949	96.369110461502	0.05
0	1949	96.381781885	0.05
0	1950	96.443108116102	0.05
0	1952	96.543108116102	0.05
0	1954	96.643108116102	0.05
0	1956	96.743108116102	0.05
0	1958	96.843108116102	0.05
0	1960	96.943108116102	0.05
0	1960	96.945392539	0.05
0	1962	97.043108116102	0.05
0	1964	97.143108116102	0.05
0	1966	97.243108116102	0.05
0	1968	97.343108116102	0.05
0	1970	97.443108116102	0.05
0	1972	97.543108116102	0.05
0	1974	97.643108116102	0.05
0	1975	97.653042835	0.0495
0	1975	97.653042835	0.0495
0	1976	97.682534196377	0.049617965445508
0	1977	97.743108116102	0.049617965445508
0	1979	97.843108116102	0.049617965445508
0	1981	97.943108116102	0.049617965445508
0	1983	98.043108116102	0.049617965445508
0	1985	98.143108116102	0.049617965445508
0	1987	98.221734589648	0.049617965445508
0	1990	98.321734589648	0.049617965445508
0	1992	98.421734589648	0.049617965445508
0	1993	98.466177325	0.049617965445508
0	1994	98.521734589648	0.049617965445508
0	1996	98.621734589648	0.049617965445508
0	1998	98.721734589648	0.049617965445508
0	2000	98.821734589648	0.049617965445508
0	2002	98.921734589648	0.049617965445508
0	2004	99.021734589648	0.049617965445508
0	2005	99.09830848	0.049617965445508
0	2006	99.121734589648	0.049617965445508
0	2008	99.221734589648	0.049617965445508
0	2010	99.321734589648	0.049617965445508
0	2012	99.421734589648	0.049617965445508
0	2014	99.521734589648	0.049617965445508
0	2016	99.621734589648	0.049617965445508
0	2018	99.721734589648	0.049617965445508
0	2020	99.821734589648	0.049617965445508
0	2021	99.871143886	0.049617965445508
0	2022	99.921734589648	0.049617965445508
0	2024	100.021734589648	0.049617965445508
0	2026	100.121734589648	0.049617965445508
0	2028	100.221734589648	0.049617965445508
0	2030	100.321734589648	0.049617965445508
0	2032	100.421734589648	0.049617965445508
0	2034	100.521734589648	0.049617965445508
0	2034	100.539082777	0.049617965445508
0	2036	100.621734589648	0.049617965445508
0	2038	100.721734589648	0.049617965445508
0	2040	100.821734589648	0.049617965445508
0	2042	100.921734589648	0.049617965445508
0	2044	101.021734589648	0.049617965445508
0	2046	101.121734589648	0.049617965445508
0	2047	101.208024286	0.049617965445508
0	2048	101.221734589648	0.049617965445508
0	2050	101.321734589648	0.049617965445508
0	2052	101.421734589648	0.049617965445508
0	2054	101.521734589648	0.049617965445508
0	2056	101.621734589648	0.049617965445508
0	2058	101.721734589648	0.049617965445508
0	2060	101.821734589648	0.049617965445508
0	2061	101.905020859	0.049617965445508
0	2062	101.921734589648	0.049617965445508
0	2064	102.021734589648	0.049617965445508
0	2066	102.121734589648	0.049617965445508
0	2068	102.221734589648	0.049617965445508
0	2070	102.321734589648	0.049617965445508
0	2071	102.409656961	0.049617965445508
0	2072	102.421734589648	0.049617965445508
0	2074	102.521734589648	0.049617965445508
0	2076	102.621734589648	0.049617965445508
0	2078	102.721734589648	0.049617965445508
0	2080	102.821734589648	0.049617965445508
0	2082	102.921734589648	0.049617965445508
0	2084	103.021734589648	0.049617965445508
0	2086	103.121734589648	0.049617965445508
0	2087	103.208092696	0.049617965445508
0	2088	103.221734589648	0.049617965445508
0	2090	103.321734589648	0.049617965445508
0	2092	103.421734589648	0.049617965445508
0	2094	103.521734589648	0.049617965445508
0	2096	103.621734589648	0.049617965445508
0	2098	103.721734589648	0.049617965445508
0	2100	103.821734589648	0.049617965445508
0	2101	103.904193064	0.049617965445508
0	2102	103.921734589648	0.049617965445508
0	2104	104.021734589648	0.049617965445508
0	2106	104.121734589648	0.049617965445508
0	2108	104.221734589648	0.049617965445508
0	2111	104.321734589648	0.049617965445508
0	2113	104.421734589648	0.049617965445508
0	2115	104.521734589648	0.049617965445508
0	2116	104.545370677	0.049617965445508
0	2117	104.621734589648	0.049617965445508
0	2119	104.721734589648	0.049617965445508
0	2121	104.821734589648	0.049617965445508
0	2123	104.921734589648	0.049617965445508
0	2125	105.021734589648	0.049121785791053
0	2125	105.021734589648	0.049121785791053
0	2127	105.121734589648	0.049121785791053
0	2128	105.15970972	0.049121785791053
0	2129	105.221734589648	0.049121785791053
0	2131	105.321734589648	0.049121785791053
0	2133	105.421734589648	0.049121785791053
0	2135	105.521734589648	0.049121785791053
0	2137	105.621734589648	0.049121785791053
0	2139	105.721734589648	0.049121785791053
0	2141	105.821734589648	0.049121785791053
0	2142	105.861439873	0.049121785791053
0	2143	105.921734589648	0.049121785791053
0	2145	106.021734589648	0.049121785791053
0	2147	106.121734589648	0.049121785791053
0	2149	106.221734589648	0.049121785791053
0	2151	106.321734589648	0.049121785791053
0	2152	106.384562851	0.049121785791053
0	2153	106.421734589648	0.048630567933142
0	2153	106.421734589648	0.048630567933142
0	2155	106.521734589648	0.048630567933142
0	2157	106.621734589648	0.048630567933142
0	2159	106.721734589648	0.048630567933142
0	2161	106.821734589648	0.048630567933142
0	2163	106.921734589648	0.048630567933142
0	2165	107.021734589648	0.048630567933142
0	2166	107.092426972	0.048630567933142
0	2167	107.121734589648	0.048630567933142
0	2169	107.221734589648	0.048630567933142
0	2171	107.321734589648	0.048630567933142
0	2173	107.421734589648	0.048630567933142
0	2175	107.521734589648	0.048630567933142
0	2176	107.615128084	0.048630567933142
0	2177	107.621734589648	0.048630567933142
0	2179	107.721734589648	0.048630567933142
0	2181	107.821734589648	0.048630567933142
0	2183	107.921734589648	0.048144262253811
0	2183	107.921734589648	0.048144262253811
0	2185	108.021734589648	0.048144262253811
0	2187	108.121734589648	0.048144262253811
0	2188	108.159234904	0.048144262253811
0	2189	108.221734589648	0.048144262253811
0	2191	108.321734589648	0.048144262253811
0	2193	108.421734589648	0.048144262253811
0	2195	108.521734589648	0.048144262253811
0	2197	108.621734589648	0.048144262253811
0	2199	108.721734589648	0.048144262253811
0	2200	108.758907286	0.048144262253811
0	2201	108.821734589648	0.048144262253811
0	2203	108.921734589648	0.048144262253811
0	2205	109.021734589648	0.048144262253811
0	2207	109.121734589648	0.048144262253811
0	2210	109.221734589648	0.048144262253811
0	2210	109.228448686	0.048144262253811
0	2212	109.321734589648	0.048144262253811
0	2214	109.421734589648	0.048144262253811
0	2216	109.521734589648	0.048144262253811
0	2218	109.621734589648	0.048144262253811
0	2220	109.721734589648	0.048144262253811
0	2222	109.821734589648	0.048144262253811
0	2223	109.873150339	0.048144262253811
0	2224	109.921734589648	0.048144262253811
0	2226	110.021734589648	0.048144262253811
0	2228	110.121734589648	0.048144262253811
0	2230	110.221734589648	0.048144262253811
0	2232	110.321734589648	0.048144262253811
0	2234	110.421734589648	0.048144262253811
0	2236	110.521734589648	0.048144262253811
0	2236	110.534532565	0.048144262253811
0	2238	110.621734589648	0.048144262253811
0	2240	110.721734589648	0.048144262253811
0	2242	110.821734589648	0.048144262253811
0	2244	110.921734589648	0.048144262253811
0	2246	111.021734589648	0.048144262253811
0	2248	111.121734589648	0.048144262253811
0	2250	111.221734589648	0.048144262253811
0	2251	111.317396533	0.048144262253811
0	2252	111.321734589648	0.048144262253811
0	2254	111.421734589648	0.048144262253811
0	2256	111.521734589648	0.048144262253811
0	2258	111.621734589648	0.048144262253811
0	2260	111.721734589648	0.048144262253811
0	2262	111.821734589648	0.048144262253811
0	2264	111.921734589648	0.048144262253811
0	2264	111.93445234	0.048144262253811
0	2266	112.021734589648	0.048144262253811
0	2268	112.121734589648	0.048144262253811
0	2270	112.221734589648	0.048144262253811
0	2272	112.321734589648	0.048144262253811
0	2274	112.421734589648	0.048144262253811
0	2275	112.494100312	0.048144262253811
0	2276	112.521734589648	0.048144262253811
0	2278	112.621734589648	0.048144262253811
0	2280	112.721734589648	0.048144262253811
0	2282	112.821734589648	0.048144262253811
0	2284	112.921734589648	0.048144262253811
0	2286	113.021734589648	0.048144262253811
0	2288	113.121734589648	0.048144262253811
0	2289	113.175073822	0.048144262253811
0	2290	113.221734589648	0.048144262253811
0	2292	113.321734589648	0.048144262253811
0	2294	113.421734589648	0.048144262253811
0	2296	113.521734589648	0.048144262253811
0	2298	113.621734589648	0.048144262253811
0	2299	113.685591961	0.048144262253811
0	2300	113.721734589648	0.048144262253811
0	2302	113.821734589648	0.048144262253811
0	2304	113.921734589648	0.048144262253811
0	2306	114.021734589648	0.048144262253811
0	2308	114.121734589648	0.048144262253811
0	2310	114.221734589648	0.048144262253811
0	2312	114.321734589648	0.048144262253811
0	2313	114.373499503	0.048144262253811
0	2314	114.421734589648	0.048144262253811
0	2316	114.521734589648	0.048144262253811
0	2318	114.621734589648	0.048144262253811
0	2320	114.721734589648	0.048144262253811
0	2321	114.819343837	0.048144262253811
0	2322	114.821734589648	0.048144262253811
0	2324	114.921734589648	0.048144262253811
0	2326	115.021734589648	0.048144262253811
0	2328	115.121734589648	0.048144262253811
0	2330	115.221734589648	0.048144262253811
0	2331	115.281516514	0.048144262253811
0	2332	115.321734589648	0.048144262253811
0	2334	115.421734589648	0.048144262253811
0	2336	115.521734589648	0.048144262253811
0	2338	115.621734589648	0.048144262253811
0	2340	115.721734589648	0.048144262253811
0	2341	115.76316913	0.048144262253811
0	2342	115.821734589648	0.048144262253811
0	2344	115.921734589648	0.048144262253811
0	2346	116.021734589648	0.048144262253811
0	2348	116.121734589648	0.048144262253811
0	2350	116.221734589648	0.048144262253811
0	2351	116.294051137	0.048144262253811
0	2352	116.321734589648	0.048144262253811
0	2354	116.421734589648	0.048144262253811
0	2356	116.521734589648	0.048144262253811
0	2358	116.621734589648	0.048144262253811
0	2360	116.721734589648	0.048144262253811
0	2362	116.821734589648	0.048144262253811
0	2363	116.890399099	0.048144262253811
0	2364	116.921734589648	0.048144262253811
0	2366	117.021734589648	0.048144262253811
0	2368	117.121734589648	0.048144262253811
0	2370	117.221734589648	0.048144262253811
0	2372	117.321734589648	0.048144262253811
0	2373	117.39783118	0.048144262253811
0	2374	117.421734589648	0.048144262253811
0	2376	117.521734589648	0.048144262253811
0	2378	117.621734589648	0.048144262253811
0	2380	117.721734589648	0.048144262253811
0	2382	117.821734589648	0.048144262253811
0	2384	117.921734589648	0.048144262253811
0	2385	117.978585823	0.048144262253811
0	2386	118.021734589648	0.048144262253811
0	2388	118.121734589648	0.048144262253811
0	2390	118.221734589648	0.048144262253811
0	2392	118.321734589648	0.048144262253811
0	2394	118.421734589648	0.048144262253811
0	2396	118.521734589648	0.048144262253811
0	2397	118.569313801	0.048144262253811
0	2398	118.621734589648	0.048144262253811
0	2400	118.721734589648	0.048144262253811
0	2402	118.821734589648	0.048144262253811
0	2404	118.921734589648	0.048144262253811
0	2406	119.021734589648	0.048144262253811
0	2408	119.121734589648	0.048144262253811
0	2410	119.221734589648	0.048144262253811
0	2412	119.321734589648	0.048144262253811
0	2412	119.322274066	0.048144262253811
0	2414	119.421734589648	0.048144262253811
0	2416	119.521734589648	0.048144262253811
0	2418	119.621734589648	0.048144262253811
0	2420	119.721734589648	0.048144262253811
0	2422	119.821734589648	0.048144262253811
0	2422	119.831673631	0.048144262253811
0	2424	119.921734589648	0.048144262253811
0	2426	120.021734589648	0.048144262253811
0	2428	120.121734589648	0.048144262253811
0	2430	120.221734589648	0.048144262253811
0	2431	120.309487762	0.048144262253811
0	2432	120.321734589648	0.048144262253811
0	2434	120.421734589648	0.048144262253811
0	2436	120.521734589648	0.048144262253811
0	2438	120.621734589648	0.048144262253811
0	2440	120.721734589648	0.048144262253811
0	2441	120.74631355	0.048144262253811
0	2442	120.821734589648	0.048144262253811
0	2444	120.921734589648	0.048144262253811
0	2446	121.021734589648	0.048144262253811
0	2448	121.121734589648	0.048144262253811
0	2450	121.221734589648	0.048144262253811
0	2452	121.321734589648	0.048144262253811
0	2452	121.334117962	0.048144262253811
0	2454	121.421734589648	0.048144262253811
0	2456	121.521734589648	0.048144262253811
0	2458	121.621734589648	0.048144262253811
0	2460	121.721734589648	0.048144262253811
0	2462	121.821734589648	0.048144262253811
0	2463	121.856215372	0.048144262253811
0	2464	121.921734589648	0.048144262253811
0	2466	122.021734589648	0.048144262253811
0	2468	122.121734589648	0.048144262253811
0	2470	122.221734589648	0.048144262253811
0	2472	122.321734589648	0.048144262253811
0	2473	122.346332551	0.048144262253811
0	2474	122.421734589648	0.048144262253811
0	2476	122.521734589648	0.048144262253811
0	2478	122.621734589648	0.048144262253811
0	2480	122.721734589648	0.048144262253811
0	2481	122.746159243	0.048144262253811
0	2482	122.821734589648	0.048144262253811
0	2484	122.921734589648	0.048144262253811
0	2486	123.021734589648	0.048144262253811
0	2488	123.121734589648	0.048144262253811
0	2490	123.221734589648	0.048144262253811
0	2491	123.299013106	0.048144262253811
0	2492	123.321734589648	0.048144262253811
0	2494	123.421734589648	0.048144262253811
0	2496	123.521734589648	0.048144262253811
0	2498	123.621734589648	0.048144262253811
0	2500	123.721734589648	0.048144262253811
0	2501	123.783512446	0.048144262253811
0	2502	123.821734589648	0.048144262253811
0	2504	123.921734589648	0.048144262253811
0	2506	124.021734589648	0.048144262253811
0	2508	124.121734589648	0.048144262253811
0	2510	124.221734589648	0.048144262253811
0	2512	124.321734589648	0.048144262253811
0	2513	124.400813695	0.048144262253811
0	2514	124.421734589648	0.048144262253811
0	2516	124.521734589648	0.048144262253811
0	2518	124.621734589648	0.048144262253811
0	2520	124.721734589648	0.048144262253811
0	2522	124.821734589648	0.048144262253811
0	2524	124.921734589648	0.048144262253811
0	2525	124.961981206	0.048144262253811
0	2526	125.021734589648	0.048144262253811
0	2528	125.121734589648	0.048144262253811
0	2530	125.221734589648	0.048144262253811
0	2532	125.321734589648	0.048144262253811
0	2534	125.421734589648	0.048144262253811
0	2536	125.521734589648	0.048144262253811
0	2537	125.582450392	0.048144262253811
0	2538	125.618939238676	0.048144262253811
0	2539	125.621734589648	0.048155443657699
0	2541	125.707873675223	0.0485
0	2542	125.721734589648	0.0485554436577
0	2544	125.821734589648	0.0489554436577
0	2545	125.832873675223	0.049
0	2547	125.921734589648	0.0493554436577
0	2549	125.957873675223	0.0495
0	2550	126.021734589648	0.0497554436577
0	2552	126.082873675223	0.05
0	2552	126.098725807	0.05
0	2553	126.121734589648	0.05
0	2555	126.221734589648	0.05
0	2557	126.321734589648	0.05
0	2559	126.421734589648	0.0495
0	2559	126.421734589648	0.0495
0	2561	126.521734589648	0.0499
0	2561	126.539914534	0.049972719777408
0	2563	126.621734589648	0.05
0	2565	126.721734589648	0.05
0	2567	126.821734589648	0.05
0	2569	126.921734589648	0.05
0	2570	127.013652289	0.05
0	2571	127.021734589648	0.05
0	2573	127.121734589648	0.05
0	2575	127.221734589648	0.05
0	2577	127.321734589648	0.05
0	2579	127.421734589648	0.05
0	2580	127.487600752	0.05
0	2581	127.521734589648	0.05
0	2583	127.621734589648	0.05
0	2585	127.721734589648	0.05
0	2587	127.821734589648	0.0495
0	2587	127.821734589648	0.0495
0	2589	127.921734589648	0.0499
0	2590	128.018715907	0.05
0	2591	128.021734589648	0.05
0	2593	128.121734589648	0.05
0	2595	128.221734589648	0.05
0	2597	128.321734589648	0.05
0	2599	128.421734589648	0.05
0	2600	128.509469497	0.05
0	2601	128.521734589648	0.05
0	2603	128.621734589648	0.05
0	2605	128.675062592821	0.05
0	2607	128.775062592821	0.05
0	2609	128.875062592821	0.05
0	2611	128.975062592821	0.05
0	2611	129.014797219	0.05
0	2613	129.075062592821	0.05
0	2615	129.175062592821	0.0495
0	2615	129.175062592821	0.0495
0	2617	129.275062592821	0.0499
0	2619	129.375062592821	0.05
0	2621	129.475062592821	0.05
0	2623	129.575062592821	0.05
0	2624	129.643264069	0.05
0	2625	129.675062592821	0.05
0	2627	129.775062592821	0.05
0	2629	129.875062592821	0.05
0	2631	129.975062592821	0.05
0	2633	130.075062592821	0.05
0	2633	130.121444425	0.05
0	2635	130.175062592821	0.05
0	2637	130.275062592821	0.05
0	2639	130.375062592821	0.05
0	2641	130.475062592821	0.05
0	2643	130.575062592821	0.05
0	2643	130.588174012	0.05
0	2645	130.675062592821	0.05
0	2647	130.775062592821	0.05
0	2649	130.875062592821	0.05
0	2651	130.975062592821	0.05
0	2653	131.075062592821	0.05
0	2653	131.079677143	0.05
0	2655	131.175062592821	0.05
0	2657	131.275062592821	0.05
0	2659	131.375062592821	0.05
0	2661	131.475062592821	0.05
0	2661	131.509793041	0.05
0	2663	131.575062592821	0.05
0	2665	131.675062592821	0.05
0	2667	131.775062592821	0.05
0	2669	131.875062592821	0.05
0	2671	131.975062592821	0.05
0	2673	132.075062592821	0.0495
0	2673	132.075062592821	0.0495
0	2674	132.150966592	0.049803615996716
0	2675	132.175062592821	0.0499
0	2677	132.275062592821	0.05
0	2679	132.375062592821	0.05
0	2681	132.475062592821	0.05
0	2683	132.575062592821	0.05
0	2685	132.675062592821	0.05
0	2687	132.775062592821	0.05
0	2689	132.875062592821	0.05
0	2689	132.920605261	0.05
0	2691	132.975062592821	0.05
0	2693	133.075062592821	0.05
0	2695	133.175062592821	0.05
0	2695	133.207548181	0.05
0	2697	133.275062592821	0.05
0	2699	133.375062592821	0.05
0	2701	133.475062592821	0.0495
0	2701	133.475062592821	0.0495
0	2703	133.575062592821	0.0499
0	2705	133.675062592821	0.05
0	2707	133.775062592821	0.05
0	2709	133.875062592821	0.05
0	2709	133.879698847	0.05
0	2711	133.975062592821	0.05
0	2713	134.075062592821	0.05
0	2715	134.175062592821	0.05
0	2717	134.275062592821	0.05
0	2719	134.375062592821	0.05
0	2721	134.475062592821	0.05
0	2721	134.483274796	0.05
0	2723	134.575062592821	0.05
0	2725	134.675062592821	0.05
0	2727	134.775062592821	0.05
0	2729	134.875062592821	0.05
0	2731	134.975062592821	0.0495
0	2731	134.975062592821	0.0495
0	2733	135.075062592821	0.0499
0	2733	135.120693793	0.05
0	2735	135.175062592821	0.05
0	2737	135.275062592821	0.05
0	2739	135.375062592821	0.05
0	2741	135.475062592821	0.05
0	2743	135.575062592821	0.05
0	2745	135.675062592821	0.05
0	2746	135.771712678	0.05
0	2747	135.775062592821	0.05
0	2749	135.875062592821	0.05
0	2751	135.975062592821	0.05
0	2753	136.075062592821	0.05
0	2755	136.175062592821	0.05
0	2757	136.275062592821	0.05
0	2758	136.353743743	0.05
0	2759	136.375062592821	0.0495
0	2759	136.375062592821	0.0495
0	2761	136.475062592821	0.0499
0	2763	136.575062592821	0.05
0	2765	136.675062592821	0.05
0	2767	136.775062592821	0.05
0	2769	136.875062592821	0.05
0	2771	136.975062592821	0.05
0	2771	137.011077562	0.05
0	2773	137.075062592821	0.05
0	2775	137.175062592821	0.05
0	2777	137.275062592821	0.05
0	2779	137.375062592821	0.05
0	2781	137.475062592821	0.05
0	2781	137.507359615	0.05
0	2783	137.575062592821	0.05
0	2785	137.675062592821	0.05
0	2787	137.775062592821	0.05
0	2789	137.875062592821	0.0495
0	2789	137.875062592821	0.0495
0	2789	137.938783744	0.049754884604716
0	2791	137.975062592821	0.0499
0	2793	138.075062592821	0.05
0	2795	138.175062592821	0.05
0	2795	138.225448774	0.05
0	2797	138.275062592821	0.05
0	2799	138.375062592821	0.05
0	2801	138.475062592821	0.05
0	2803	138.575062592821	0.05
0	2804	138.653842147	0.05
0	2805	138.675062592821	0.05
0	2807	138.775062592821	0.05
0	2809	138.875062592821	0.05
0	2811	138.975062592821	0.05
0	2812	139.059306034	0.05
0	2813	139.075062592821	0.05
0	2815	139.175062592821	0.0495
0	2815	139.175062592821	0.0495
0	2817	139.275062592821	0.0499
0	2819	139.375062592821	0.05
0	2821	139.475062592821	0.05
0	2823	139.575062592821	0.05
0	2823	139.615154806	0.05
0	2825	139.675062592821	0.05
0	2827	139.775062592821	0.05
0	2829	139.875062592821	0.05
0	2831	139.975062592821	0.05
0	2833	140.075062592821	0.05
0	2833	140.09957005	0.05
0	2835	140.175062592821	0.05
0	2837	140.275062592821	0.05
0	2839	140.375062592821	0.05
0	2841	140.475062592821	0.05
0	2843	140.575062592821	0.05
0	2843	140.613076675	0.05
0	2845	140.675062592821	0.05
0	2847	140.775062592821	0.05
0	2849	140.875062592821	0.05
0	2851	140.975062592821	0.05
0	2852	141.059162569	0.05
0	2853	141.075062592821	0.05
0	2855	141.175062592821	0.05
0	2857	141.275062592821	0.05
0	2859	141.375062592821	0.05
0	2861	141.475062592821	0.05
0	2862	141.565659016	0.05
0	2863	141.575062592821	0.05
0	2865	141.675062592821	0.05
0	2867	141.775062592821	0.05
0	2869	141.875062592821	0.05
0	2871	141.975062592821	0.05
0	2873	142.075062592821	0.0495
0	2873	142.075062592821	0.0495
0	2873	142.109222419	0.049636639304716
0	2875	142.175062592821	0.0499
0	2877	142.275062592821	0.05
0	2879	142.375062592821	0.05
0	2881	142.475062592821	0.05
0	2883	142.575062592821	0.05
0	2885	142.675062592821	0.05
0	2885	142.71101977	0.05
0	2887	142.775062592821	0.05
0	2889	142.875062592821	0.05
0	2891	142.975062592821	0.05
0	2893	143.075062592821	0.05
0	2894	143.172521422	0.05
0	2895	143.175062592821	0.05
0	2897	143.275062592821	0.05
0	2899	143.375062592821	0.05
0	2901	143.475062592821	0.0495
0	2901	143.475062592821	0.0495
0	2903	143.575062592821	0.0499
0	2903	143.628516304	0.05
0	2905	143.675062592821	0.05
0	2907	143.775062592821	0.05
0	2909	143.875062592821	0.05
0	2911	143.975062592821	0.05
0	2913	144.075062592821	0.05
0	2915	144.175062592821	0.05
0	2916	144.267657103	0.05
0	2917	144.275062592821	0.05
0	2919	144.375062592821	0.05
0	2921	144.475062592821	0.05
0	2923	144.575062592821	0.05
0	2925	144.675062592821	0.05
0	2927	144.775062592821	0.05
0	2929	144.875062592821	0.05
0	2931	144.975062592821	0.0495
0	2931	144.975062592821	0.0495
0	2931	145.012971274	0.049651634724716
0	2933	145.075062592821	0.0499
0	2935	145.175062592821	0.05
0	2937	145.275062592821	0.05
0	2939	145.375062592821	0.05
0	2941	145.475062592821	0.05
0	2943	145.575062592821	0.05
0	2945	145.675062592821	0.05
0	2945	145.735593712	0.05
0	2947	145.775062592821	0.05
0	2949	145.875062592821	0.05
0	2951	145.975062592821	0.05
0	2953	146.075062592821	0.05
0	2955	146.175062592821	0.05
0	2957	146.275062592821	0.05
0	2958	146.355191092	0.05
0	2959	146.375062592821	0.0495
0	2959	146.375062592821	0.0495
0	2961	146.475062592821	0.0499
0	2963	146.575062592821	0.05
0	2965	146.675062592821	0.05
0	2967	146.775062592821	0.05
0	2969	146.875062592821	0.05
0	2971	146.975062592821	0.05
0	2971	147.027445225	0.05
0	2973	147.075062592821	0.05
0	2975	147.175062592821	0.05
0	2977	147.275062592821	0.05
0	2979	147.375062592821	0.05
0	2981	147.475062592821	0.05
0	2983	147.575062592821	0.05
0	2985	147.675062592821	0.05
0	2987	147.775062592821	0.05
0	2989	147.875062592821	0.05
0	2989	147.889141222	0.05
0	2991	147.975062592821	0.05
0	2993	148.075062592821	0.05
0	2995	148.175062592821	0.05
0	2997	148.275062592821	0.05
0	2999	148.375062592821	0.05
0	3001	148.475062592821	0.05
0	3003	148.575062592821	0.05
0	3003	148.603559677	0.05
0	3005	148.675062592821	0.05
0	3007	148.775062592821	0.05
0	3009	148.875062592821	0.05
0	3011	148.975062592821	0.05
0	3013	149.075062592821	0.05
0	3015	149.175062592821	0.05
0	3017	149.275062592821	0.05
0	3017	149.331322321	0.05
0	3019	149.375062592821	0.0495
0	3019	149.375062592821	0.0495
0	3021	149.475062592821	0.0499
0	3023	149.575062592821	0.05
0	3025	149.675062592821	0.05
0	3027	149.775062592821	0.05
0	3029	149.875062592821	0.05
0	3029	149.886437287	0.05
0	3031	149.975062592821	0.05
0	3033	150.075062592821	0.05
0	3035	150.175062592821	0.05
0	3037	150.275062592821	0.05
0	3038	150.351643618	0.05
0	3039	150.375062592821	0.05
0	3041	150.475062592821	0.05
0	3043	150.575062592821	0.05
0	3045	150.675062592821	0.05
0	3047	150.775062592821	0.05
0	3049	150.875062592821	0.0495
0	3049	150.875062592821	0.0495
0	3050	150.955730377	0.049822671136716
0	3051	150.975062592821	0.0499
0	3053	151.075062592821	0.05
0	3055	151.175062592821	0.05
0	3057	151.275062592821	0.05
0	3059	151.375062592821	0.05
0	3061	151.475062592821	0.05
0	3063	151.575062592821	0.05
0	3063	151.61741203	0.05
0	3065	151.675062592821	0.05
0	3067	151.775062592821	0.05
0	3069	151.875062592821	0.05
0	3071	151.975062592821	0.05
0	3073	152.075062592821	0.05
0	3075	152.175062592821	0.05
0	3075	152.217068944	0.05
0	3077	152.275062592821	0.0495
0	3077	152.275062592821	0.0495
0	3079	152.375062592821	0.0499
0	3081	152.475062592821	0.05
0	3083	152.575062592821	0.05
0	3085	152.675062592821	0.05
0	3087	152.775062592821	0.05
0	3089	152.875062592821	0.05
0	3089	152.915452948	0.05
0	3091	152.975062592821	0.05
0	3093	153.075062592821	0.05
0	3095	153.175062592821	0.05
0	3097	153.275062592821	0.05
0	3099	153.375062592821	0.05
0	3100	153.461709733	0.05
0	3101	153.475062592821	0.05
0	3103	153.575062592821	0.05
0	3105	153.675062592821	0.05
0	3107	153.775062592821	0.0495
0	3107	153.775062592821	0.0495
0	3109	153.875062592821	0.0499
0	3109	153.886272406	0.049944839252716
0	3111	153.975062592821	0.05
0	3113	154.075062592821	0.05
0	3115	154.175062592821	0.05
0	3117	154.275062592821	0.05
0	3119	154.375062592821	0.05
0	3121	154.475062592821	0.05
0	3122	154.566508498	0.05
0	3123	154.575062592821	0.05
0	3125	154.675062592821	0.05
0	3127	154.775062592821	0.05
0	3129	154.875062592821	0.05
0	3131	154.975062592821	0.05
0	3133	155.075062592821	0.05
0	3135	155.175062592821	0.05
0	3135	155.201963005	0.05
0	3137	155.275062592821	0.05
0	3139	155.375062592821	0.05
0	3141	155.475062592821	0.05
0	3143	155.575062592821	0.05
0	3145	155.675062592821	0.05
0	3147	155.775062592821	0.05
0	3147	155.816490754	0.05
0	3149	155.875062592821	0.05
0	3151	155.975062592821	0.05
0	3153	156.075062592821	0.05
0	3155	156.175062592821	0.05
0	3157	156.275062592821	0.05
0	3157	156.317325679	0.05
0	3159	156.375062592821	0.05
0	3161	156.475062592821	0.05
0	3163	156.575062592821	0.05
0	3165	156.675062592821	0.0495
0	3165	156.675062592821	0.0495
0	3167	156.775062592821	0.0499
0	3167	156.832614967	0.05
0	3169	156.875062592821	0.05
0	3171	156.975062592821	0.05
0	3173	157.075062592821	0.05
0	3175	157.175062592821	0.05
0	3176	157.258904848	0.05
0	3177	157.275062592821	0.05
0	3179	157.375062592821	0.05
0	3181	157.475062592821	0.05
0	3183	157.575062592821	0.05
0	3185	157.675062592821	0.05
0	3186	157.769386456	0.05
0	3187	157.775062592821	0.05
0	3189	157.875062592821	0.05
0	3191	157.975062592821	0.05
0	3193	158.075062592821	0.0495
0	3193	158.075062592821	0.0495
0	3195	158.175062592821	0.0499
0	3195	158.229702514	0.05
0	3197	158.275062592821	0.05
0	3199	158.375062592821	0.05
0	3201	158.475062592821	0.05
0	3201	158.528717437	0.05
0	3203	158.575062592821	0.05
0	3205	158.675062592821	0.05
0	3207	158.775062592821	0.05
0	3209	158.875062592821	0.05
0	3211	158.975062592821	0.05
0	3211	159.020073202	0.05
0	3213	159.075062592821	0.05
0	3215	159.175062592821	0.05
0	3217	159.275062592821	0.05
0	3219	159.375062592821	0.05
0	3221	159.475062592821	0.0495
0	3221	159.475062592821	0.0495
0	3221	159.481363519	0.049525203704716
0	3223	159.575062592821	0.0499
0	3225	159.675062592821	0.05
0	3227	159.775062592821	0.05
0	3229	159.875062592821	0.05
0	3230	159.963850642	0.05
0	3231	159.975062592821	0.05
0	3233	160.075062592821	0.05
0	3235	160.175062592821	0.05
0	3237	160.275062592821	0.05
0	3239	160.375062592821	0.05
0	3241	160.475062592821	0.05
0	3241	160.491369274	0.05
0	3243	160.575062592821	0.05
0	3245	160.675062592821	0.05
0	3247	160.775062592821	0.05
0	3249	160.875062592821	0.0495
0	3249	160.875062592821	0.0495
0	3251	160.975062592821	0.0499
0	3252	161.038830424	0.05
0	3253	161.075062592821	0.05
0	3255	161.175062592821	0.05
0	3257	161.275062592821	0.05
0	3259	161.375062592821	0.05
0	3261	161.475062592821	0.05
0	3262	161.536825249	0.05
0	3263	161.575062592821	0.05
0	3265	161.675062592821	0.05
0	3267	161.775062592821	0.05
0	3269	161.875062592821	0.05
0	3271	161.975062592821	0.05
0	3271	161.97662452	0.05
0	3273	162.075062592821	0.05
0	3275	162.175062592821	0.05
0	3277	162.275062592821	0.0495
0	3277	162.275062592821	0.0495
0	3279	162.375062592821	0.0499
0	3279	162.398701393	0.049994555200716
0	3281	162.475062592821	0.05
0	3283	162.575062592821	0.05
0	3285	162.648103863273	0.05
0	3286	162.675062592821	0.05
0	3288	162.775062592821	0.05
0	3289	162.836791222	0.05
0	3290	162.875062592821	0.05
0	3292	162.975062592821	0.05
0	3294	163.075062592821	0.05
0	3296	163.175062592821	0.05
0	3298	163.275062592821	0.05
0	3299	163.364228395	0.05
0	3300	163.375062592821	0.05
0	3302	163.475062592821	0.05
0	3304	163.575062592821	0.05
0	3306	163.675062592821	0.05
0	3308	163.775062592821	0.05
0	3310	163.875062592821	0.05
0	3312	163.975062592821	0.05
0	3312	163.976561386	0.05
0	3314	164.075062592821	0.05
0	3316	164.175062592821	0.05
0	3318	164.275062592821	0.05
0	3320	164.375062592821	0.05
0	3321	164.443066108	0.05
0	3322	164.475062592821	0.05
0	3324	164.575062592821	0.05
0	3326	164.675062592821	0.05
0	3328	164.775062592821	0.05
0	3330	164.875062592821	0.05
0	3332	164.975062592821	0.05
0	3333	165.042292441	0.05
0	3334	165.075062592821	0.05
0	3336	165.175062592821	0.05
0	3338	165.275062592821	0.05
0	3340	165.375062592821	0.05
0	3342	165.475062592821	0.05
0	3344	165.575062592821	0.05
0	3346	165.675062592821	0.05
0	3348	165.775062592821	0.05
0	3349	165.80935504	0.05
0	3350	165.875062592821	0.05
0	3352	165.975062592821	0.05
0	3354	166.075062592821	0.05
0	3356	166.175062592821	0.05
0	3358	166.275062592821	0.05
0	3360	166.375062592821	0.05
0	3362	166.475062592821	0.05
0	3362	166.478620171	0.05
0	3364	166.575062592821	0.05
0	3366	166.675062592821	0.05
0	3368	166.775062592821	0.05
0	3370	166.875062592821	0.05
0	3372	166.975062592821	0.05
0	3373	167.069334088	0.05
0	3374	167.075062592821	0.05
0	3376	167.175062592821	0.05
0	3378	167.275062592821	0.05
0	3380	167.375062592821	0.05
0	3382	167.475062592821	0.05
0	3384	167.575062592821	0.05
0	3386	167.675062592821	0.05
0	3387	167.739727438	0.05
0	3388	167.775062592821	0.05
0	3390	167.875062592821	0.05
0	3392	167.975062592821	0.05
0	3394	168.075062592821	0.05
0	3396	168.175062592821	0.05
0	3398	168.275062592821	0.05
0	3400	168.375062592821	0.05
0	3401	168.455658286	0.05
0	3402	168.475062592821	0.05
0	3404	168.575062592821	0.05
0	3406	168.675062592821	0.05
0	3408	168.775062592821	0.05
0	3410	168.875062592821	0.05
0	3412	168.975062592821	0.05
0	3414	169.075062592821	0.05
0	3415	169.126814005	0.05
0	3416	169.175062592821	0.05
0	3418	169.275062592821	0.05
0	3420	169.375062592821	0.05
0	3422	169.475062592821	0.05
0	3424	169.575062592821	0.05
0	3426	169.675062592821	0.05
0	3427	169.703375476	0.05
0	3428	169.775062592821	0.05
0	3430	169.875062592821	0.05
0	3432	169.975062592821	0.05
0	3434	170.075062592821	0.05
0	3435	170.123058319	0.05
0	3436	170.175062592821	0.05
0	3438	170.275062592821	0.05
0	3440	170.375062592821	0.05
0	3442	170.475062592821	0.05
0	3444	170.575062592821	0.05
0	3444	170.582749711	0.05
0	3446	170.675062592821	0.05
0	3448	170.775062592821	0.05
0	3450	170.875062592821	0.05
0	3452	170.975062592821	0.05
0	3453	171.062582158	0.05
0	3454	171.075062592821	0.05
0	3456	171.175062592821	0.05
0	3458	171.275062592821	0.05
0	3460	171.375062592821	0.05
0	3462	171.475062592821	0.05
0	3463	171.554847409	0.05
0	3464	171.575062592821	0.05
0	3466	171.675062592821	0.05
0	3468	171.775062592821	0.05
0	3470	171.875062592821	0.05
0	3471	171.954671317	0.05
0	3472	171.975062592821	0.05
0	3474	172.075062592821	0.05
0	3476	172.175062592821	0.05
0	3478	172.275062592821	0.05
0	3480	172.375062592821	0.05
0	3482	172.475062592821	0.05
0	3483	172.516791181	0.05
0	3484	172.575062592821	0.05
0	3486	172.675062592821	0.05
0	3488	172.775062592821	0.05
0	3490	172.875062592821	0.05
0	3492	172.975062592821	0.05
0	3493	173.056211611	0.05
0	3494	173.075062592821	0.05
0	3496	173.175062592821	0.05
0	3498	173.275062592821	0.05
0	3500	173.375062592821	0.05
0	3502	173.475062592821	0.05
0	3503	173.561461243	0.05
0	3504	173.575062592821	0.05
0	3506	173.675062592821	0.05
0	3508	173.775062592821	0.05
0	3510	173.875062592821	0.05
0	3512	173.975062592821	0.05
0	3513	174.073777645	0.05
0	3514	174.075062592821	0.05
0	3516	174.175062592821	0.05
0	3518	174.275062592821	0.05
0	3520	174.375062592821	0.05
0	3522	174.475062592821	0.05
0	3524	174.575062592821	0.05
0	3525	174.666248353	0.05
0	3526	174.675062592821	0.05
0	3528	174.775062592821	0.05
0	3530	174.875062592821	0.05
0	3532	174.975062592821	0.05
0	3534	175.075062592821	0.05
0	3536	175.175062592821	0.05
0	3537	175.257024691	0.05
0	3538	175.275062592821	0.05
0	3540	175.375062592821	0.05
0	3542	175.475062592821	0.05
0	3544	175.575062592821	0.05
0	3546	175.675062592821	0.05
0	3548	175.775062592821	0.05
0	3550	175.875062592821	0.05
0	3552	175.975062592821	0.05
0	3552	175.998065659	0.05
0	3554	176.075062592821	0.05
0	3556	176.175062592821	0.05
0	3558	176.275062592821	0.05
0	3560	176.375062592821	0.05
0	3562	176.475062592821	0.05
0	3562	176.481571246	0.05
0	3564	176.575062592821	0.05
0	3566	176.675062592821	0.05
0	3568	176.775062592821	0.05
0	3570	176.875062592821	0.05
0	3572	176.975062592821	0.05
0	3573	177.021484951	0.05
0	3574	177.075062592821	0.05
0	3576	177.175062592821	0.05
0	3578	177.275062592821	0.05
0	3580	177.375062592821	0.05
0	3582	177.475062592821	0.05
0	3584	177.575062592821	0.05
0	3584	177.592462849	0.05
0	3586	177.675062592821	0.05
0	3588	177.775062592821	0.05
0	3590	177.875062592821	0.05
0	3592	177.975062592821	0.05
0	3594	178.075062592821	0.05
0	3595	178.114909912	0.05
0	3596	178.175062592821	0.05
0	3598	178.275062592821	0.05
0	3600	178.375062592821	0.05
0	3602	178.475062592821	0.05
0	3604	178.575062592821	0.05
0	3605	178.609907863	0.05
0	3606	178.675062592821	0.05
0	3608	178.775062592821	0.05
0	3610	178.875062592821	0.05
0	3612	178.975062592821	0.05
0	3614	179.075062592821	0.05
0	3615	179.13818083	0.05
0	3616	179.175062592821	0.05
0	3618	179.275062592821	0.05
0	3620	179.375062592821	0.05
0	3622	179.475062592821	0.05
0	3624	179.575062592821	0.05
0	3626	179.675062592821	0.05
0	3628	179.775062592821	0.05
0	3628	179.78313448	0.05
0	3630	179.875062592821	0.05
0	3632	179.975062592821	0.05
0	3634	180.075062592821	0.05
0	3636	180.175062592821	0.05
0	3638	180.275062592821	0.05
0	3640	180.375062592821	0.05
0	3641	180.392462250933	0.05
0	3642	180.424535533	0.05
0	3643	180.492462250933	0.05
0	3645	180.592462250933	0.05
0	3647	180.692462250933	0.05
0	3649	180.792462250933	0.05
0	3651	180.892462250933	0.05
0	3653	180.992462250933	0.0495
0	3653	180.992462250933	0.0495
0	3655	181.092462250933	0.0495
0	3656	181.144080466	0.0495
0	3657	181.192462250933	0.0495
0	3659	181.292462250933	0.0495
0	3661	181.392462250933	0.0495
0	3663	181.492462250933	0.0495
0	3665	181.592462250933	0.0495
0	3667	181.692462250933	0.0495
0	3669	181.792462250933	0.0495
0	3670	181.800618379	0.0495
0	3671	181.892462250933	0.0495
0	3673	181.992462250933	0.0495
0	3675	182.092462250933	0.0495
0	3677	182.192462250933	0.0495
0	3678	182.274719821	0.0495
0	3679	182.292462250933	0.0495
0	3681	182.392462250933	0.049005
0	3681	182.392462250933	0.049005
0	3683	182.492462250933	0.049005
0	3685	182.592462250933	0.049005
0	3687	182.692462250933	0.049005
0	3689	182.792462250933	0.049005
0	3691	182.892462250933	0.049005
0	3692	182.926846372	0.049005
0	3693	182.992462250933	0.049005
0	3695	183.092462250933	0.049005
0	3697	183.192462250933	0.049005
0	3699	183.292462250933	0.049005
0	3701	183.392462250933	0.049005
0	3703	183.492462250933	0.049005
0	3704	183.572725207	0.049005
0	3705	183.592462250933	0.049005
0	3707	183.692462250933	0.049005
0	3709	183.792462250933	0.049005
0	3711	183.892462250933	0.04851495
0	3711	183.892462250933	0.04851495
0	3713	183.992462250933	0.04851495
0	3715	184.092462250933	0.04851495
0	3716	184.101570376	0.04851495
0	3717	184.192462250933	0.04851495
0	3719	184.292462250933	0.04851495
0	3721	184.392462250933	0.04851495
0	3723	184.492462250933	0.04851495
0	3725	184.592462250933	0.04851495
0	3727	184.692462250933	0.04851495
0	3729	184.792462250933	0.04851495
0	3730	184.832315176	0.04851495
0	3731	184.892462250933	0.04851495
0	3733	184.992462250933	0.04851495
0	3735	185.092462250933	0.04851495
0	3737	185.192462250933	0.04851495
0	3739	185.292462250933	0.04851495
0	3741	185.392462250933	0.0480298005
0	3741	185.392462250933	0.0480298005
0	3742	185.402680993	0.0480298005
0	3743	185.492462250933	0.0480298005
0	3745	185.592462250933	0.0480298005
0	3747	185.692462250933	0.0480298005
0	3749	185.792462250933	0.0480298005
0	3751	185.892462250933	0.0480298005
0	3753	185.992462250933	0.0480298005
0	3755	186.092462250933	0.0480298005
0	3756	186.129784588	0.0480298005
0	3757	186.192462250933	0.0480298005
0	3759	186.292462250933	0.0480298005
0	3761	186.392462250933	0.0480298005
0	3763	186.492462250933	0.0480298005
0	3765	186.592462250933	0.0480298005
0	3766	186.661575325	0.0480298005
0	3767	186.692462250933	0.0480298005
0	3769	186.792462250933	0.047549502495
0	3769	186.792462250933	0.047549502495
0	3771	186.892462250933	0.047549502495
0	3773	186.992462250933	0.047549502495
0	3775	187.092462250933	0.047549502495
0	3776	187.159102537	0.047549502495
0	3777	187.192462250933	0.047549502495
0	3779	187.292462250933	0.047549502495
0	3781	187.392462250933	0.047549502495
0	3782	187.426867612	0.047549502495
0	3783	187.492462250933	0.047549502495
0	3785	187.592462250933	0.047549502495
0	3787	187.692462250933	0.047549502495
0	3788	187.717475794	0.047549502495
0	3789	187.792462250933	0.047549502495
0	3791	187.892462250933	0.047549502495
0	3793	187.992462250933	0.047549502495
0	3795	188.092462250933	0.047549502495
0	3797	188.192462250933	0.04707400747005
0	3797	188.192462250933	0.04707400747005
0	3799	188.292462250933	0.04707400747005
0	3799	188.296896595	0.04707400747005
0	3801	188.392462250933	0.04707400747005
0	3803	188.492462250933	0.04707400747005
0	3805	188.592462250933	0.04707400747005
0	3807	188.692462250933	0.04707400747005
0	3809	188.792462250933	0.04707400747005
0	3810	188.8686331	0.04707400747005
0	3811	188.892462250933	0.04707400747005
0	3813	188.992462250933	0.04707400747005
0	3815	189.092462250933	0.04707400747005
0	3817	189.192462250933	0.04707400747005
0	3819	189.292462250933	0.04707400747005
0	3821	189.392462250933	0.04707400747005
0	3822	189.440585437	0.04707400747005
0	3823	189.492462250933	0.04707400747005
0	3825	189.592462250933	0.04660326739535
0	3825	189.592462250933	0.04660326739535
0	3827	189.692462250933	0.04660326739535
0	3829	189.792462250933	0.04660326739535
0	3831	189.892462250933	0.04660326739535
0	3832	189.906142861	0.04660326739535
0	3833	189.992462250933	0.04660326739535
0	3835	190.092462250933	0.04660326739535
0	3837	190.192462250933	0.04660326739535
0	3839	190.292462250933	0.04660326739535
0	3840	190.353178705	0.04660326739535
0	3841	190.392462250933	0.04660326739535
0	3843	190.492462250933	0.04660326739535
0	3845	190.592462250933	0.04660326739535
0	3846	190.633686886	0.04660326739535
0	3847	190.692462250933	0.04660326739535
0	3849	190.792462250933	0.04660326739535
0	3851	190.892462250933	0.04660326739535
0	3853	190.992462250933	0.046137234721396
0	3853	190.992462250933	0.046137234721396
0	3855	191.092462250933	0.046137234721396
0	3856	191.150441491	0.046137234721396
0	3857	191.192462250933	0.046137234721396
0	3859	191.292462250933	0.046137234721396
0	3861	191.392462250933	0.046137234721396
0	3863	191.492462250933	0.046137234721396
0	3865	191.592462250933	0.046137234721396
0	3867	191.692462250933	0.046137234721396
0	3868	191.709285679	0.046137234721396
0	3869	191.792462250933	0.046137234721396
0	3871	191.892462250933	0.046137234721396
0	3873	191.992462250933	0.046137234721396
0	3875	192.092462250933	0.046137234721396
0	3877	192.192462250933	0.046137234721396
0	3878	192.201162925	0.046137234721396
0	3879	192.292462250933	0.046137234721396
0	3881	192.392462250933	0.045675862374182
0	3881	192.392462250933	0.045675862374182
0	3883	192.492462250933	0.045675862374182
0	3885	192.592462250933	0.045675862374182
0	3887	192.692462250933	0.045675862374182
0	3889	192.792462250933	0.045675862374182
0	3890	192.850561993	0.045675862374182
0	3891	192.892462250933	0.045675862374182
0	3893	192.992462250933	0.045675862374182
0	3895	193.092462250933	0.045675862374182
0	3897	193.192462250933	0.045675862374182
0	3899	193.292462250933	0.045675862374182
0	3901	193.392462250933	0.045675862374182
0	3902	193.465986712	0.045675862374182
0	3903	193.492462250933	0.045675862374182
0	3905	193.592462250933	0.045675862374182
0	3907	193.692462250933	0.045675862374182
0	3909	193.792462250933	0.045675862374182
0	3911	193.892462250933	0.04521910375044
0	3911	193.892462250933	0.04521910375044
0	3913	193.992462250933	0.04521910375044
0	3915	194.092462250933	0.04521910375044
0	3916	194.179422937	0.04521910375044
0	3917	194.192462250933	0.04521910375044
0	3919	194.292462250933	0.04521910375044
0	3921	194.392462250933	0.04521910375044
0	3923	194.492462250933	0.04521910375044
0	3925	194.592462250933	0.04521910375044
0	3927	194.692462250933	0.04521910375044
0	3929	194.792462250933	0.04521910375044
0	3929	194.798529037	0.04521910375044
0	3931	194.892462250933	0.04521910375044
0	3933	194.992462250933	0.04521910375044
0	3935	195.092462250933	0.04521910375044
0	3937	195.192462250933	0.04521910375044
0	3939	195.292462250933	0.04521910375044
0	3941	195.392462250933	0.044766912712936
0	3941	195.392462250933	0.044766912712936
0	3943	195.492462250933	0.044766912712936
0	3944	195.541373707	0.044766912712936
0	3945	195.592462250933	0.044766912712936
0	3947	195.692462250933	0.044766912712936
0	3949	195.792462250933	0.044766912712936
0	3951	195.892462250933	0.044766912712936
0	3953	195.992462250933	0.044766912712936
0	3955	196.092462250933	0.044766912712936
0	3956	196.147964089	0.044766912712936
0	3957	196.192462250933	0.044766912712936
0	3959	196.292462250933	0.044766912712936
0	3961	196.392462250933	0.044766912712936
0	3963	196.492462250933	0.044766912712936
0	3965	196.592462250933	0.044766912712936
0	3967	196.692462250933	0.044766912712936
0	3968	196.780759495	0.044766912712936
0	3969	196.792462250933	0.044319243585806
0	3969	196.792462250933	0.044319243585806
0	3971	196.892462250933	0.044319243585806
0	3973	196.992462250933	0.044319243585806
[...]
2	3417	169.198861068995	0.05
2	3419	169.298861068995	0.05
2	3421	169.398861068995	0.05
2	3423	169.498861068995	0.0495
2	3423	169.498861068995	0.0495
2	3425	169.598861068995	0.0499
2	3427	169.698861068995	0.05
2	3427	169.703375476	0.05
2	3429	169.798861068995	0.05
2	3431	169.898861068995	0.05
2	3433	169.998861068995	0.05
2	3435	170.098861068995	0.05
2	3435	170.123058319	0.05
2	3437	170.198861068995	0.05
2	3439	170.298861068995	0.05
2	3441	170.398861068995	0.05
2	3443	170.498861068995	0.05
2	3444	170.582749711	0.05
2	3445	170.598861068995	0.05
2	3447	170.698861068995	0.05
2	3449	170.798861068995	0.05
2	3451	170.898861068995	0.0495
2	3451	170.898861068995	0.0495
2	3453	170.998861068995	0.0499
2	3453	171.062582158	0.05
2	3455	171.098861068995	0.05
2	3457	171.198861068995	0.05
2	3459	171.298861068995	0.05
2	3461	171.398861068995	0.05
2	3463	171.498861068995	0.05
2	3463	171.554847409	0.05
2	3465	171.598861068995	0.05
2	3467	171.698861068995	0.05
2	3469	171.798861068995	0.05
2	3471	171.898861068995	0.05
2	3471	171.954671317	0.05
2	3473	171.998861068995	0.05
2	3475	172.098861068995	0.05
2	3477	172.198861068995	0.05
2	3479	172.298861068995	0.0495
2	3479	172.298861068995	0.0495
2	3481	172.398861068995	0.0499
2	3483	172.498861068995	0.05
2	3483	172.516791181	0.05
2	3485	172.598861068995	0.05
2	3487	172.698861068995	0.05
2	3489	172.798861068995	0.05
2	3491	172.898861068995	0.05
2	3493	172.998861068995	0.05
2	3493	173.056211611	0.05
2	3495	173.098861068995	0.05
2	3497	173.198861068995	0.05
2	3499	173.298861068995	0.05
2	3501	173.398861068995	0.05
2	3503	173.498861068995	0.05
2	3503	173.561461243	0.05
2	3505	173.598861068995	0.05
2	3507	173.698861068995	0.0495
2	3507	173.698861068995	0.0495
2	3509	173.798861068995	0.0499
2	3511	173.898861068995	0.05
2	3513	173.998861068995	0.05
2	3513	174.073777645	0.05
2	3515	174.098861068995	0.05
2	3517	174.198861068995	0.05
2	3519	174.298861068995	0.05
2	3521	174.398861068995	0.05
2	3523	174.498861068995	0.05
2	3525	174.598861068995	0.05
2	3525	174.666248353	0.05
2	3527	174.698861068995	0.05
2	3529	174.798861068995	0.05
2	3531	174.898861068995	0.05
2	3533	174.998861068995	0.05
2	3535	175.098861068995	0.05
2	3537	175.198861068995	0.0495
2	3537	175.198861068995	0.0495
2	3537	175.257024691	0.04973265448802
2	3539	175.298861068995	0.0499
2	3541	175.398861068995	0.05
2	3543	175.498861068995	0.05
2	3545	175.598861068995	0.05
2	3547	175.698861068995	0.05
2	3549	175.798861068995	0.05
2	3551	175.898861068995	0.05
2	3552	175.998065659	0.05
2	3553	175.998861068995	0.05
2	3555	176.098861068995	0.05
2	3557	176.198861068995	0.05
2	3559	176.298861068995	0.05
2	3561	176.398861068995	0.05
2	3562	176.481571246	0.05
2	3563	176.498861068995	0.05
2	3565	176.598861068995	0.0495
2	3565	176.598861068995	0.0495
2	3567	176.698861068995	0.0499
2	3569	176.798861068995	0.05
2	3571	176.898861068995	0.05
2	3573	176.998861068995	0.05
2	3573	177.021484951	0.05
2	3575	177.098861068995	0.05
2	3577	177.198861068995	0.05
2	3579	177.298861068995	0.05
2	3581	177.398861068995	0.05
2	3583	177.498861068995	0.05
2	3584	177.592462849	0.05
2	3585	177.598861068995	0.05
2	3587	177.698861068995	0.05
2	3589	177.798861068995	0.05
2	3591	177.898861068995	0.05
2	3593	177.998861068995	0.05
2	3595	178.098861068995	0.0495
2	3595	178.098861068995	0.0495
2	3595	178.114909912	0.04956419537202
2	3597	178.198861068995	0.0499
2	3599	178.298861068995	0.05
2	3601	178.398861068995	0.05
2	3603	178.498861068995	0.05
2	3605	178.598861068995	0.05
2	3605	178.609907863	0.05
2	3607	178.698861068995	0.05
2	3609	178.798861068995	0.05
2	3611	178.898861068995	0.05
2	3613	178.998861068995	0.05
2	3615	179.098861068995	0.05
2	3615	179.13818083	0.05
2	3617	179.198861068995	0.05
2	3619	179.298861068995	0.05
2	3621	179.398861068995	0.05
2	3623	179.498861068995	0.0495
2	3623	179.498861068995	0.0495
2	3625	179.598861068995	0.0499
2	3627	179.698861068995	0.05
2	3628	179.78313448	0.05
2	3629	179.798861068995	0.05
2	3631	179.898861068995	0.05
2	3633	179.998861068995	0.05
2	3635	180.098861068995	0.05
2	3637	180.198861068995	0.05
2	3639	180.298861068995	0.05
2	3642	180.398861068995	0.05
2	3642	180.424535533	0.05
2	3644	180.498861068995	0.05
2	3646	180.598861068995	0.05
2	3648	180.698861068995	0.05
2	3650	180.798861068995	0.05
2	3652	180.898861068995	0.05
2	3654	180.998861068995	0.05
2	3656	181.098861068995	0.05
2	3656	181.144080466	0.05
2	3658	181.198861068995	0.05
2	3660	181.298861068995	0.05
2	3662	181.398861068995	0.05
2	3664	181.498861068995	0.05
2	3666	181.598861068995	0.05
2	3668	181.698861068995	0.05
2	3670	181.798861068995	0.05
2	3670	181.800618379	0.05
2	3672	181.898861068995	0.05
2	3674	181.998861068995	0.05
2	3676	182.098861068995	0.05
2	3678	182.198861068995	0.05
2	3678	182.274719821	0.05
2	3680	182.298861068995	0.05
2	3682	182.398861068995	0.05
2	3684	182.498861068995	0.05
2	3686	182.598861068995	0.05
2	3688	182.698861068995	0.05
2	3690	182.798861068995	0.05
2	3692	182.898861068995	0.05
2	3692	182.926846372	0.05
2	3694	182.998861068995	0.05
2	3696	183.098861068995	0.05
2	3698	183.198861068995	0.05
2	3700	183.298861068995	0.05
2	3702	183.398861068995	0.05
2	3704	183.498861068995	0.05
2	3704	183.572725207	0.05
2	3706	183.598861068995	0.05
2	3708	183.698861068995	0.05
2	3710	183.798861068995	0.05
2	3712	183.898861068995	0.05
2	3714	183.998861068995	0.05
2	3716	184.098861068995	0.05
2	3716	184.101570376	0.05
2	3718	184.198861068995	0.05
2	3720	184.298861068995	0.05
2	3722	184.398861068995	0.05
2	3724	184.498861068995	0.05
2	3726	184.598861068995	0.05
2	3728	184.698861068995	0.05
2	3730	184.798861068995	0.05
2	3730	184.832315176	0.05
2	3732	184.898861068995	0.05
2	3734	184.998861068995	0.05
2	3736	185.098861068995	0.05
2	3738	185.198861068995	0.05
2	3740	185.298861068995	0.05
2	3742	185.398861068995	0.05
2	3742	185.402680993	0.05
2	3744	185.498861068995	0.05
2	3746	185.598861068995	0.05
2	3748	185.698861068995	0.05
2	3750	185.798861068995	0.05
2	3752	185.898861068995	0.05
2	3754	185.998861068995	0.05
2	3756	186.098861068995	0.05
2	3756	186.129784588	0.05
2	3758	186.198861068995	0.05
2	3760	186.298861068995	0.05
2	3762	186.398861068995	0.05
2	3764	186.498861068995	0.05
2	3766	186.598861068995	0.05
2	3766	186.661575325	0.05
2	3768	186.698861068995	0.05
2	3770	186.798861068995	0.05
2	3772	186.898861068995	0.05
2	3774	186.998861068995	0.05
2	3776	187.098861068995	0.05
2	3776	187.159102537	0.05
2	3778	187.198861068995	0.05
2	3780	187.298861068995	0.05
2	3782	187.398861068995	0.05
2	3782	187.426867612	0.05
2	3784	187.498861068995	0.05
2	3786	187.598861068995	0.05
2	3788	187.698861068995	0.05
2	3788	187.717475794	0.05
2	3790	187.798861068995	0.05
2	3792	187.898861068995	0.05
2	3794	187.998861068995	0.05
2	3796	188.098861068995	0.05
2	3798	188.198861068995	0.05
2	3799	188.296896595	0.05
2	3800	188.298861068995	0.05
2	3802	188.398861068995	0.05
2	3804	188.498861068995	0.05
2	3806	188.598861068995	0.05
2	3808	188.698861068995	0.05
2	3810	188.798861068995	0.05
2	3810	188.8686331	0.05
2	3812	188.898861068995	0.05
2	3814	188.998861068995	0.05
2	3816	189.098861068995	0.05
2	3818	189.198861068995	0.05
2	3820	189.298861068995	0.05
2	3822	189.398861068995	0.05
2	3822	189.440585437	0.05
2	3824	189.498861068995	0.05
2	3826	189.598861068995	0.05
2	3828	189.698861068995	0.05
2	3830	189.798861068995	0.05
2	3832	189.898861068995	0.05
2	3832	189.906142861	0.05
2	3834	189.998861068995	0.05
2	3836	190.098861068995	0.05
2	3838	190.198861068995	0.05
2	3840	190.298861068995	0.05
2	3840	190.353178705	0.05
2	3842	190.398861068995	0.05
2	3844	190.498861068995	0.05
2	3846	190.598861068995	0.05
2	3846	190.633686886	0.05
2	3848	190.698861068995	0.05
2	3850	190.798861068995	0.05
2	3852	190.898861068995	0.05
2	3854	190.998861068995	0.05
2	3856	191.098861068995	0.05
2	3856	191.150441491	0.05
2	3858	191.198861068995	0.05
2	3860	191.298861068995	0.05
2	3862	191.398861068995	0.05
2	3864	191.498861068995	0.05
2	3866	191.598861068995	0.05
2	3868	191.698861068995	0.05
2	3868	191.709285679	0.05
2	3870	191.798861068995	0.05
2	3872	191.898861068995	0.05
2	3874	191.998861068995	0.05
2	3876	192.098861068995	0.05
2	3878	192.198861068995	0.05
2	3878	192.201162925	0.05
2	3880	192.298861068995	0.05
2	3882	192.398861068995	0.05
2	3884	192.498861068995	0.05
2	3886	192.598861068995	0.05
2	3888	192.698861068995	0.05
2	3890	192.798861068995	0.05
2	3890	192.850561993	0.05
2	3892	192.898861068995	0.05
2	3894	192.998861068995	0.05
2	3896	193.098861068995	0.05
2	3898	193.198861068995	0.05
2	3900	193.298861068995	0.05
2	3902	193.398861068995	0.05
2	3902	193.465986712	0.05
2	3904	193.498861068995	0.05
2	3906	193.598861068995	0.05
2	3908	193.698861068995	0.05
2	3910	193.798861068995	0.05
2	3912	193.898861068995	0.05
2	3914	193.998861068995	0.05
2	3916	194.098861068995	0.05
2	3916	194.179422937	0.05
2	3918	194.198861068995	0.05
2	3920	194.298861068995	0.05
2	3922	194.398861068995	0.05
2	3924	194.498861068995	0.05
2	3926	194.598861068995	0.05
2	3928	194.698861068995	0.05
2	3929	194.798529037	0.05
2	3930	194.798861068995	0.05
2	3932	194.898861068995	0.05
2	3934	194.998861068995	0.05
2	3936	195.098861068995	0.05
2	3938	195.198861068995	0.05
2	3940	195.298861068995	0.05
2	3942	195.398861068995	0.05
2	3944	195.498861068995	0.05
2	3944	195.541373707	0.05
2	3946	195.598861068995	0.05
2	3948	195.698861068995	0.05
2	3950	195.798861068995	0.05
2	3952	195.898861068995	0.05
2	3954	195.998861068995	0.05
2	3956	196.098861068995	0.05
2	3956	196.147964089	0.05
2	3958	196.198861068995	0.05
2	3960	196.298861068995	0.05
2	3962	196.398861068995	0.05
2	3964	196.498861068995	0.05
2	3966	196.598861068995	0.05
2	3968	196.698861068995	0.05
2	3968	196.780759495	0.05
2	3970	196.798861068995	0.05
2	3972	196.898861068995	0.05
2	3974	196.998861068995	0.05
2	3976	197.098861068995	0.05
2	3978	197.198861068995	0.05
2	3980	197.298861068995	0.05
2	3981	197.396333638	0.05
2	3982	197.398861068995	0.05
2	3984	197.498861068995	0.05
2	3986	197.598861068995	0.05
2	3988	197.698861068995	0.05
2	3990	197.798861068995	0.05
2	3990	197.808230302	0.05
2	3992	197.898861068995	0.05
2	3994	197.998861068995	0.05
2	3996	198.098861068995	0.05
2	3998	198.198861068995	0.05
2	4000	198.298861068995	0.05
2	4000	198.315081244	0.05
2	4002	198.398861068995	0.05
2	4004	198.498861068995	0.05
2	4006	198.598861068995	0.05
2	4008	198.698861068995	0.05
2	4010	198.798861068995	0.05
2	4010	198.800803675	0.05
2	4012	198.898861068995	0.05
2	4014	198.998861068995	0.05
2	4016	199.098861068995	0.05
2	4018	199.198861068995	0.05
2	4020	199.298861068995	0.05
2	4020	199.311099133	0.05
2	4022	199.398861068995	0.05
2	4024	199.498861068995	0.05
2	4026	199.598861068995	0.05
2	4028	199.698861068995	0.05
2	4030	199.798861068995	0.05
2	4032	199.898861068995	0.05
2	4034	199.998861068995	0.05
2	4035	200.093576047	0.05
2	4036	200.098861068995	0.05
2	4038	200.198861068995	0.05
2	4040	200.298861068995	0.05
2	4042	200.398861068995	0.05
2	4044	200.498861068995	0.05
2	4046	200.598861068995	0.05
2	4048	200.698861068995	0.05
2	4048	200.748408913	0.05
2	4050	200.798861068995	0.05
2	4052	200.898861068995	0.05
2	4054	200.998861068995	0.05
2	4056	201.098861068995	0.05
2	4058	201.198861068995	0.05
2	4058	201.284007946	0.05
2	4060	201.298861068995	0.05
2	4062	201.398861068995	0.05
2	4064	201.498861068995	0.05
2	4066	201.598861068995	0.05
2	4068	201.698861068995	0.05
2	4070	201.798861068995	0.05
2	4070	201.806818771	0.05
2	4072	201.898861068995	0.05
2	4074	201.998861068995	0.05
2	4076	202.098861068995	0.05
2	4078	202.198861068995	0.05
2	4078	202.268307151	0.05
2	4080	202.298861068995	0.05
2	4082	202.398861068995	0.05
2	4084	202.498861068995	0.05
2	4086	202.598861068995	0.05
2	4088	202.698861068995	0.05
2	4090	202.798861068995	0.05
2	4090	202.801608106	0.05
2	4092	202.898861068995	0.05
2	4094	202.998861068995	0.05
2	4096	203.098861068995	0.05
2	4098	203.198861068995	0.05
2	4100	203.298861068995	0.05
2	4100	203.330103913	0.05
2	4102	203.398861068995	0.05
2	4104	203.498861068995	0.05
2	4106	203.598861068995	0.05
2	4108	203.698861068995	0.05
2	4110	203.798861068995	0.05
2	4110	203.825067193	0.05
2	4112	203.898861068995	0.05
2	4114	203.998861068995	0.05
2	4116	204.098861068995	0.05
2	4118	204.198861068995	0.05
2	4120	204.298861068995	0.05
2	4122	204.398861068995	0.05
2	4122	204.452217589	0.05
2	4124	204.498861068995	0.05
2	4126	204.598861068995	0.05
2	4128	204.698861068995	0.05
2	4130	204.798861068995	0.05
2	4132	204.898861068995	0.05
2	4134	204.998861068995	0.05
2	4134	205.01745259	0.05
2	4136	205.098861068995	0.05
2	4138	205.198861068995	0.05
2	4140	205.298861068995	0.05
2	4142	205.398861068995	0.05
2	4142	205.436733484	0.05
2	4144	205.498861068995	0.05
2	4146	205.598861068995	0.05
2	4146	205.677227113	0.05
2	4148	205.698861068995	0.05
2	4150	205.798861068995	0.05
2	4152	205.898861068995	0.05
2	4154	205.998861068995	0.05
2	4155	206.097936481	0.05
2	4156	206.098861068995	0.05
2	4158	206.198861068995	0.05
2	4160	206.298861068995	0.05
2	4162	206.398861068995	0.05
2	4164	206.498861068995	0.05
2	4166	206.598861068995	0.05
2	4166	206.628619639	0.05
2	4168	206.698861068995	0.05
2	4170	206.798861068995	0.05
2	4172	206.898861068995	0.05
2	4174	206.998861068995	0.05
2	4176	207.098861068995	0.05
2	4176	207.148283548	0.05
2	4178	207.198861068995	0.05
2	4180	207.298861068995	0.05
2	4182	207.398861068995	0.05
2	4184	207.498861068995	0.05
2	4186	207.598861068995	0.05
2	4187	207.694786657	0.05
2	4188	207.698861068995	0.05
2	4190	207.798861068995	0.05
2	4192	207.898861068995	0.05
2	4194	207.998861068995	0.05
2	4196	208.098861068995	0.05
2	4198	208.198861068995	0.05
2	4200	208.298861068995	0.05
2	4200	208.39083826	0.05
2	4202	208.398861068995	0.05
2	4204	208.498861068995	0.05
2	4206	208.598861068995	0.05
2	4208	208.698861068995	0.05
2	4210	208.798861068995	0.05
2	4212	208.898861068995	0.05
2	4212	208.936328353	0.05
2	4214	208.998861068995	0.05
2	4216	209.098861068995	0.05
2	4218	209.198861068995	0.05
2	4220	209.298861068995	0.05
2	4222	209.398861068995	0.05
2	4222	209.462923822	0.05
2	4224	209.498861068995	0.05
2	4226	209.598861068995	0.05
2	4228	209.698861068995	0.05
2	4230	209.798861068995	0.05
2	4232	209.898861068995	0.05
2	4232	209.935059724	0.05
2	4234	209.998861068995	0.05
2	4236	210.098861068995	0.05
2	4238	210.198861068995	0.05
2	4239	210.252513870041	0.05
2	4241	210.298861068995	0.05
2	4243	210.398861068995	0.05
2	4243	210.410711293	0.05
2	4245	210.498861068995	0.05
2	4247	210.598861068995	0.05
2	4249	210.698861068995	0.05
2	4251	210.798861068995	0.05
2	4253	210.898861068995	0.05
2	4253	210.953367079	0.05
2	4255	210.998861068995	0.0495
2	4255	210.998861068995	0.0495
2	4257	211.098861068995	0.0495
2	4259	211.198861068995	0.0495
2	4261	211.298861068995	0.0495
2	4263	211.398861068995	0.0495
2	4263	211.40970415	0.0495
2	4265	211.498861068995	0.0495
2	4267	211.598861068995	0.0495
2	4269	211.698861068995	0.0495
2	4271	211.798861068995	0.0495
2	4271	211.869707386	0.0495
2	4273	211.898861068995	0.0495
2	4275	211.998861068995	0.0495
2	4277	212.098861068995	0.0495
2	4279	212.198861068995	0.0495
2	4281	212.298861068995	0.0495
2	4283	212.398861068995	0.0495
2	4283	212.401585672	0.049005
2	4283	212.401585672	0.049005
2	4285	212.498861068995	0.049005
2	4287	212.598861068995	0.049005
2	4289	212.698861068995	0.049005
2	4291	212.798861068995	0.049005
2	4291	212.868666724	0.049005
2	4293	212.898861068995	0.049005
2	4295	212.998861068995	0.049005
2	4297	213.098861068995	0.049005
2	4299	213.198861068995	0.049005
2	4301	213.298861068995	0.049005
2	4303	213.398861068995	0.049005
2	4305	213.498861068995	0.049005
2	4305	213.575885047	0.049005
2	4307	213.598861068995	0.049005
2	4309	213.698861068995	0.049005
2	4311	213.798861068995	0.049005
2	4313	213.898861068995	0.04851495
2	4313	213.898861068995	0.04851495
2	4315	213.998861068995	0.04851495
2	4316	214.093927279	0.04851495
2	4317	214.098861068995	0.04851495
2	4319	214.198861068995	0.04851495
2	4321	214.298861068995	0.04851495
2	4323	214.398861068995	0.04851495
2	4325	214.498861068995	0.04851495
2	4327	214.598861068995	0.04851495
2	4327	214.674661438	0.04851495
2	4329	214.698861068995	0.04851495
2	4331	214.798861068995	0.04851495
2	4333	214.898861068995	0.04851495
2	4335	214.998861068995	0.04851495
2	4337	215.098861068995	0.04851495
2	4337	215.127493525	0.04851495
2	4339	215.198861068995	0.04851495
2	4341	215.298861068995	0.0480298005
2	4341	215.298861068995	0.0480298005
2	4343	215.398861068995	0.0480298005
2	4345	215.498861068995	0.0480298005
2	4347	215.598861068995	0.0480298005
2	4349	215.698861068995	0.0480298005
2	4349	215.705912224	0.0480298005
2	4351	215.798861068995	0.0480298005
2	4353	215.898861068995	0.0480298005
2	4355	215.998861068995	0.0480298005
2	4357	216.098861068995	0.0480298005
2	4359	216.198861068995	0.0480298005
2	4361	216.298861068995	0.0480298005
2	4363	216.398861068995	0.0480298005
2	4365	216.498861068995	0.0480298005
2	4365	216.522458875	0.0480298005
2	4367	216.598861068995	0.0480298005
2	4369	216.698861068995	0.0480298005
2	4371	216.798861068995	0.047549502495
2	4371	216.798861068995	0.047549502495
2	4373	216.898861068995	0.047549502495
2	4375	216.998861068995	0.047549502495
2	4377	217.098861068995	0.047549502495
2	4377	217.119583303	0.047549502495
2	4379	217.198861068995	0.047549502495
2	4381	217.298861068995	0.047549502495
2	4383	217.398861068995	0.047549502495
2	4385	217.498861068995	0.047549502495
2	4387	217.598861068995	0.047549502495
2	4389	217.698861068995	0.047549502495
2	4391	217.798861068995	0.047549502495
2	4391	217.869739432	0.047549502495
2	4393	217.898861068995	0.047549502495
2	4395	217.998861068995	0.047549502495
2	4397	218.098861068995	0.047549502495
2	4399	218.198861068995	0.047549502495
2	4401	218.298861068995	0.04707400747005
2	4401	218.298861068995	0.04707400747005
2	4403	218.398861068995	0.04707400747005
2	4403	218.426237707	0.04707400747005
2	4405	218.498861068995	0.04707400747005
2	4407	218.598861068995	0.04707400747005
2	4409	218.698861068995	0.04707400747005
2	4411	218.798861068995	0.04707400747005
2	4413	218.898861068995	0.04707400747005
2	4415	218.998861068995	0.04707400747005
2	4417	219.098861068995	0.04707400747005
2	4417	219.122057752	0.04707400747005
2	4419	219.198861068995	0.04707400747005
2	4421	219.298861068995	0.04707400747005
2	4423	219.398861068995	0.04707400747005
2	4425	219.498861068995	0.04707400747005
2	4427	219.598861068995	0.04707400747005
2	4429	219.698861068995	0.04707400747005
2	4430	219.794809975	0.04707400747005
2	4431	219.798861068995	0.04707400747005
2	4433	219.898861068995	0.04707400747005
2	4435	219.998861068995	0.04707400747005
2	4437	220.098861068995	0.04707400747005
2	4437	220.18711471	0.04707400747005
2	4439	220.198861068995	0.04707400747005
2	4441	220.298861068995	0.04707400747005
2	4443	220.398861068995	0.04707400747005
2	4443	220.44510046	0.04707400747005
2	4445	220.498861068995	0.04707400747005
2	4447	220.598861068995	0.04707400747005
2	4449	220.698861068995	0.04707400747005
2	4451	220.798861068995	0.04707400747005
2	4453	220.898861068995	0.04707400747005
2	4453	220.937745226	0.04707400747005
2	4455	220.998861068995	0.04707400747005
2	4457	221.098861068995	0.04660326739535
2	4457	221.098861068995	0.04660326739535
2	4459	221.198861068995	0.04660326739535
2	4461	221.298861068995	0.04660326739535
2	4463	221.398861068995	0.04660326739535
2	4463	221.440910437	0.04660326739535
2	4465	221.498861068995	0.04660326739535
2	4467	221.598861068995	0.04660326739535
2	4469	221.698861068995	0.04660326739535
2	4471	221.798861068995	0.04660326739535
2	4473	221.898861068995	0.04660326739535
2	4473	221.922741202	0.04660326739535
2	4473	221.992462250933	0.04660326739535
3	0	0	0.004
3	943	46.974101355068	0
3	984	48.963355232396	0.004
3	2110	104.294036020767	0
3	2209	109.192269619226	0.004
3	4239	210.252513870041	0
4	0	0	0.004
4	462	23.08057828677	0
4	515	25.654787379751	0.004
4	1478	73.525843820817	0
4	1909	94.948921357954	0.004
4	1976	97.682534196377	0
4	2538	125.618939238676	0.004
4	3285	162.648103863273	0
5	0	0	0.004
5	943	46.974101355068	0
5	984	48.963355232396	0.004
5	2110	104.294036020767	0
5	2209	109.192269619226	0.004
5	4239	210.252513870041	0

