version 2
run Mysterio-0-20210612-12:37:29-2591
attr configname Mysterio
attr datetime 20210612-12:37:29
attr experiment Mysterio
attr inifile omnetpp.ini
attr iterationvars ""
attr iterationvarsf ""
attr measurement ""
attr network MysterioCommunication
attr processid 2591
attr repetition 0
attr replication #0
attr resultdir results
attr runnumber 0
attr seedset 0
param *.host[*].mobility.numeroDrones 10
param *.numHosts 10
param *.host[*].osgModel "\"3d/drone.ive.100.scale.0,0,90.rot\""
param *.canvasVisualizer.energyStorageVisualizer.displayEnergyStorages true
param *.host[*].hasStatus true
param *.host[*].energyStorage.typename "\"SimpleEpEnergyStorage\""
param *.host[*].wlan[*].radio.energyConsumer.typename "\"StateBasedEpEnergyConsumer\""
param *.host[*].energyManagement.typename "\"SimpleEpEnergyManagement\""
param *.host[*].energyStorage.nominalCapacity 0.05J
param *.host[*].energyManagement.nodeShutdownCapacity "0.1 * energyStorage.nominalCapacity"
param *.host[*].energyManagement.nodeStartCapacity "0.5 * energyStorage.nominalCapacity"
param *.host[*].energyStorage.initialCapacity 0.05J
param *.host[*].energyGenerator.typename "\"AlternatingEpEnergyGenerator\""
param *.host[*].energyGenerator.powerGeneration 4mW
param *.host[*].energyGenerator.sleepInterval exponential(25s)
param *.host[*].energyGenerator.generationInterval exponential(25s)
param *.host[*].mobility.typename "\"UAVMobility\""
param *.host[*].mobility.changeInterval 1s
param *.host[*].mobility.initialMovementHeading "uniform(0deg, 360deg)"
param *.host[*].mobility.initialMovementElevation "uniform(-90deg, 90deg)"
param *.host[*].mobility.angleDelta uniform(-10deg,10deg)
param *.host[*].mobility.rotationAxisAngle uniform(-10deg,10deg)
param *.host[*].mobility.speed uniform(10mps,20mps)
param *.host[*].mobility.faceForward false
param **.constraintAreaMinZ 200m
param *.visualizer.osgVisualizer.typename "\"IntegratedOsgVisualizer\""
param *.visualizer.osgVisualizer.sceneVisualizer.clearColor "\"skyblue\""
param *.visualizer.osgVisualizer.sceneVisualizer.sceneImage "\"showcases/desert\""
param *.visualizer.osgVisualizer.sceneVisualizer.sceneImageSize 5000m
param *.visualizer.osgVisualizer.sceneVisualizer.axisLength 1000m
param *.visualizer.osgVisualizer.sceneVisualizer.sceneMinX -2000m
param *.visualizer.osgVisualizer.sceneVisualizer.sceneMinY -2000m
param *.visualizer.osgVisualizer.sceneVisualizer.sceneMinZ 0m
param *.visualizer.osgVisualizer.sceneVisualizer.sceneMaxX 3000m
param *.visualizer.osgVisualizer.sceneVisualizer.sceneMaxY 3000m
param *.visualizer.osgVisualizer.sceneVisualizer.sceneMaxZ 1000m
param *.visualizer.osgVisualizer.networkNodeVisualizer.displayModuleName false
param *.visualizer.*.mobilityVisualizer.displayMobility true
param *.visualizer.*.mobilityVisualizer.displayPositions true
param *.visualizer.*.mobilityVisualizer.displayOrientations false
param *.visualizer.*.mobilityVisualizer.displayVelocities true
param *.visualizer.*.mobilityVisualizer.displayMovementTrails true
param *.visualizer.*.mobilityVisualizer.animationSpeed 1
param **.constraintAreaMinX 0m
param **.constraintAreaMinY 0m
param **.constraintAreaMinZ 0m
param **.constraintAreaMaxX 1000m
param **.constraintAreaMaxY 1000m
param **.constraintAreaMaxZ 1000m
param **.networkConfiguratorModule "\"\""

vector 0 MysterioCommunication.host[0].energyStorage residualEnergyCapacity:vector ETV
attr interpolationmode linear
attr source residualEnergyCapacityChanged
attr title "Residual energy capacity, vector"
vector 1 MysterioCommunication.host[0].energyGenerator powerGeneration:vector ETV
attr interpolationmode sample-hold
attr source powerGenerationChanged
attr title "Power generation, vector"
vector 2 MysterioCommunication.host[1].energyStorage residualEnergyCapacity:vector ETV
attr interpolationmode linear
attr source residualEnergyCapacityChanged
attr title "Residual energy capacity, vector"
vector 3 MysterioCommunication.host[1].energyGenerator powerGeneration:vector ETV
attr interpolationmode sample-hold
attr source powerGenerationChanged
attr title "Power generation, vector"
vector 4 MysterioCommunication.host[2].energyStorage residualEnergyCapacity:vector ETV
attr interpolationmode linear
attr source residualEnergyCapacityChanged
attr title "Residual energy capacity, vector"
vector 5 MysterioCommunication.host[2].energyGenerator powerGeneration:vector ETV
attr interpolationmode sample-hold
attr source powerGenerationChanged
attr title "Power generation, vector"
vector 6 MysterioCommunication.host[3].energyStorage residualEnergyCapacity:vector ETV
attr interpolationmode linear
attr source residualEnergyCapacityChanged
attr title "Residual energy capacity, vector"
vector 7 MysterioCommunication.host[3].energyGenerator powerGeneration:vector ETV
attr interpolationmode sample-hold
attr source powerGenerationChanged
attr title "Power generation, vector"
vector 8 MysterioCommunication.host[4].energyStorage residualEnergyCapacity:vector ETV
attr interpolationmode linear
attr source residualEnergyCapacityChanged
attr title "Residual energy capacity, vector"
vector 9 MysterioCommunication.host[4].energyGenerator powerGeneration:vector ETV
attr interpolationmode sample-hold
attr source powerGenerationChanged
attr title "Power generation, vector"
vector 10 MysterioCommunication.host[5].energyStorage residualEnergyCapacity:vector ETV
attr interpolationmode linear
attr source residualEnergyCapacityChanged
attr title "Residual energy capacity, vector"
vector 11 MysterioCommunication.host[5].energyGenerator powerGeneration:vector ETV
attr interpolationmode sample-hold
attr source powerGenerationChanged
attr title "Power generation, vector"
vector 12 MysterioCommunication.host[6].energyStorage residualEnergyCapacity:vector ETV
attr interpolationmode linear
attr source residualEnergyCapacityChanged
attr title "Residual energy capacity, vector"
vector 13 MysterioCommunication.host[6].energyGenerator powerGeneration:vector ETV
attr interpolationmode sample-hold
attr source powerGenerationChanged
attr title "Power generation, vector"
vector 14 MysterioCommunication.host[7].energyStorage residualEnergyCapacity:vector ETV
attr interpolationmode linear
attr source residualEnergyCapacityChanged
attr title "Residual energy capacity, vector"
vector 15 MysterioCommunication.host[7].energyGenerator powerGeneration:vector ETV
attr interpolationmode sample-hold
attr source powerGenerationChanged
attr title "Power generation, vector"
vector 16 MysterioCommunication.host[8].energyStorage residualEnergyCapacity:vector ETV
attr interpolationmode linear
attr source residualEnergyCapacityChanged
attr title "Residual energy capacity, vector"
vector 17 MysterioCommunication.host[8].energyGenerator powerGeneration:vector ETV
attr interpolationmode sample-hold
attr source powerGenerationChanged
attr title "Power generation, vector"
vector 18 MysterioCommunication.host[9].energyStorage residualEnergyCapacity:vector ETV
attr interpolationmode linear
attr source residualEnergyCapacityChanged
attr title "Residual energy capacity, vector"
vector 19 MysterioCommunication.host[9].energyGenerator powerGeneration:vector ETV
attr interpolationmode sample-hold
attr source powerGenerationChanged
attr title "Power generation, vector"
vector 20 MysterioCommunication.host[0].energyStorage powerGeneration:vector ETV
attr interpolationmode sample-hold
attr source powerGenerationChanged
attr title "Power generation, vector"
vector 21 MysterioCommunication.host[1].energyStorage powerGeneration:vector ETV
attr interpolationmode sample-hold
attr source powerGenerationChanged
attr title "Power generation, vector"
vector 22 MysterioCommunication.host[2].energyStorage powerGeneration:vector ETV
attr interpolationmode sample-hold
attr source powerGenerationChanged
attr title "Power generation, vector"
vector 23 MysterioCommunication.host[3].energyStorage powerGeneration:vector ETV
attr interpolationmode sample-hold
attr source powerGenerationChanged
attr title "Power generation, vector"
vector 24 MysterioCommunication.host[4].energyStorage powerGeneration:vector ETV
attr interpolationmode sample-hold
attr source powerGenerationChanged
attr title "Power generation, vector"
vector 25 MysterioCommunication.host[5].energyStorage powerGeneration:vector ETV
attr interpolationmode sample-hold
attr source powerGenerationChanged
attr title "Power generation, vector"
vector 26 MysterioCommunication.host[6].energyStorage powerGeneration:vector ETV
attr interpolationmode sample-hold
attr source powerGenerationChanged
attr title "Power generation, vector"
vector 27 MysterioCommunication.host[7].energyStorage powerGeneration:vector ETV
attr interpolationmode sample-hold
attr source powerGenerationChanged
attr title "Power generation, vector"
vector 28 MysterioCommunication.host[8].energyStorage powerGeneration:vector ETV
attr interpolationmode sample-hold
attr source powerGenerationChanged
attr title "Power generation, vector"
vector 29 MysterioCommunication.host[9].energyStorage powerGeneration:vector ETV
attr interpolationmode sample-hold
attr source powerGenerationChanged
attr title "Power generation, vector"
0	0	0	0.05
0	0	0.1	0.05
0	10	0.103240267	0.05
0	10	0.157755902	0.05
0	20	0.217890373	0.05
0	20	0.285045537	0.05
0	30	0.343419728	0.05
0	40	0.419274093	0.05
0	41	0.48538859	0.05
0	51	0.561336552	0.05
0	61	0.629822621	0.05
0	71	0.715743898	0.05
0	81	0.867675319	0.05
0	91	0.951774976	0.05
0	101	1.041873066	0.05
0	111	1.135548601	0.05
0	131	1.317741504	0.05
0	141	1.414481464	0.05
0	151	1.505968187	0.05
0	151	1.574696536	0.05
0	161	1.656302937	0.05
0	171	1.753955225	0.05
0	181	1.835818891	0.05
0	191	1.907279328	0.05
0	191	1.989072049	0.05
0	201	2.05063363	0.05
0	211	2.123810671	0.05
0	211	2.18749591	0.05
0	221	2.251167723	0.05
0	231	2.321895885	0.05
0	231	2.395006588	0.05
0	241	2.464429055	0.05
0	251	2.563070089	0.05
0	261	2.651166208	0.05
0	271	2.739942518	0.05
0	281	2.840074637	0.05
0	291	2.976303806	0.05
0	292	3	0.05
0	302	3.0204370462	0.05
0	302	3.029961033	0.05
0	302	3.039414732	0.05
0	302	3.0462116037	0.05
0	302	3.0514183952	0.05
0	302	3.0568433649	0.05
0	302	3.0622820143	0.05
0	302	3.0682666334	0.05
0	302	3.0754062011	0.05
0	302	3.083415495	0.05
0	302	3.0908709453	0.05
0	302	3.0986779893	0.05
0	303	3.1	0.05
0	313	3.1075079116	0.05
0	313	3.1166837477	0.05
0	313	3.1228203929	0.05
0	313	3.1301081614	0.05
0	313	3.1402179337	0.05
0	313	3.1463138506	0.05
0	313	3.1540695492	0.05
0	313	3.1598488487	0.05
0	313	3.1684572675	0.05
0	313	3.1750732273	0.05
0	313	3.1826048862	0.05
0	313	3.1896406105	0.05
0	313	3.1975426157	0.05
0	314	3.2	0.05
0	324	3.2092730088	0.05
0	324	3.2177530704	0.05
0	324	3.2232503361	0.05
0	324	3.2296644381	0.05
0	324	3.2348874578	0.05
0	324	3.2393330345	0.05
0	324	3.2467952954	0.05
0	324	3.2523589084	0.05
0	324	3.2576059318	0.05
0	324	3.2619051101	0.05
0	324	3.2675537761	0.05
0	324	3.2726286614	0.05
0	324	3.2800670441	0.05
0	324	3.2877794413	0.05
0	324	3.2951863377	0.05
0	325	3.3	0.05
0	335	3.3070414205	0.05
0	335	3.3163222917	0.05
0	335	3.3248627443	0.05
0	335	3.3346727726	0.05
0	335	3.3425441976	0.05
0	335	3.3489168291	0.05
0	335	3.3585434824	0.05
0	335	3.374182598	0.05
0	335	3.3864476816	0.05
0	335	3.3920275563	0.05
0	335	3.3996686711	0.05
0	336	3.4	0.05
0	346	3.4087509837	0.05
0	346	3.4185645727	0.05
0	346	3.4255560025	0.05
0	346	3.4328291841	0.05
0	346	3.4398470214	0.05
0	346	3.4471644819	0.05
0	346	3.4553202311	0.05
0	346	3.4647163792	0.05
0	346	3.4727710037	0.05
0	346	3.4831906225	0.05
0	346	3.4909592685	0.05
0	346	3.4991823311	0.05
0	347	3.5	0.05
0	357	3.5061643303	0.05
0	357	3.5153273753	0.05
0	357	3.5244735373	0.05
0	357	3.531817779	0.05
0	357	3.5393027482	0.05
0	357	3.5476445676	0.05
0	357	3.5538601737	0.05
0	357	3.5616112246	0.05
0	357	3.5675392383	0.05
0	357	3.5744603228	0.05
0	357	3.5839772017	0.05
0	357	3.590733817	0.05
0	357	3.5982550522	0.05
0	358	3.6	0.05
0	368	3.6083497408	0.05
0	368	3.6171514082	0.05
0	368	3.6255845523	0.05
0	368	3.6336247775	0.05
0	368	3.6414985088	0.05
0	368	3.6492488006	0.05
0	368	3.6582538587	0.05
0	368	3.6659366643	0.05
0	368	3.6731222908	0.05
0	368	3.6808237685	0.05
0	368	3.6895153457	0.05
0	368	3.6960762252	0.05
0	369	3.7	0.05
0	379	3.7085292406	0.05
0	379	3.7171454273	0.05
0	379	3.727926571	0.05
0	379	3.7395330376	0.05
0	379	3.7478949161	0.05
0	379	3.756869272	0.05
0	379	3.7667423765	0.05
0	379	3.7784600966	0.05
0	379	3.7888556276	0.05
0	379	3.796521971	0.05
0	380	3.8	0.05
0	390	3.809191325	0.05
0	390	3.817951401	0.05
0	390	3.8283395153	0.05
0	390	3.837142554	0.05
0	390	3.8459378136	0.05
0	390	3.8530863943	0.05
0	390	3.8599286721	0.05
0	390	3.8653088274	0.05
0	390	3.8737616442	0.05
0	390	3.8807346837	0.05
0	390	3.8904457425	0.05
0	390	3.8999566614	0.05
0	391	3.9	0.05
0	401	3.9079040997	0.05
0	401	3.9166702763	0.05
0	401	3.9249410031	0.05
0	401	3.9331412004	0.05
0	401	3.9410036622	0.05
0	401	3.9484589131	0.05
0	401	3.9562574326	0.05
0	401	3.9641409598	0.05
0	401	3.9724967677	0.05
0	401	3.9796555378	0.05
0	401	3.9892458813	0.05
0	401	3.9968079201	0.05
0	402	4	0.05
0	412	4.009586077	0.05
0	412	4.017386239	0.05
0	412	4.0260762452	0.05
0	412	4.0319007624	0.05
0	412	4.0402344772	0.05
0	412	4.0471103927	0.05
0	413	4.0553078892	0.05
0	413	4.0614344277	0.05
0	413	4.068238628	0.05
0	413	4.0800996966	0.05
0	413	4.0882801602	0.05
0	413	4.0969212518	0.05
0	414	4.1	0.05
0	424	4.1099209461	0.05
0	424	4.1244359195	0.05
0	424	4.1307996046	0.05
0	424	4.1394888275	0.05
0	424	4.1467656047	0.05
0	424	4.1552184003	0.05
0	424	4.1623741158	0.05
0	424	4.1718416624	0.05
0	424	4.1790042434	0.05
0	424	4.1861069657	0.05
0	424	4.1936139451	0.05
0	424	4.1999733814	0.05
0	425	4.2	0.05
0	435	4.2074531891	0.05
0	435	4.215791983	0.05
0	435	4.2229006476	0.05
0	435	4.2307310955	0.05
0	435	4.2375503308	0.05
0	435	4.2453713246	0.05
0	435	4.2559169762	0.05
0	435	4.2665802041	0.05
0	435	4.2746632351	0.05
0	435	4.2833692978	0.05
0	435	4.2914747921	0.05
0	435	4.2993925898	0.05
0	436	4.3	0.05
0	446	4.306797128	0.05
0	446	4.3175040139	0.05
0	446	4.3244029293	0.05
0	446	4.3297828894	0.05
0	446	4.3383351481	0.05
0	446	4.3480023466	0.05
0	446	4.358298429	0.05
0	446	4.3670816315	0.05
0	446	4.3735372165	0.05
0	446	4.3806810748	0.05
0	446	4.3866291508	0.05
0	446	4.39476731	0.05
0	447	4.4	0.05
0	457	4.4078570132	0.05
0	457	4.416896254	0.05
0	457	4.4272643286	0.05
0	457	4.4358623655	0.05
0	457	4.4453776008	0.05
0	457	4.4511067306	0.05
0	457	4.4588465177	0.05
0	457	4.4664762974	0.05
0	457	4.4749703114	0.05
0	457	4.4839549458	0.05
0	457	4.4941503131	0.05
0	458	4.5	0.05
0	468	4.575892368	0.05
0	478	4.666268957	0.05
0	488	4.7506722	0.05
0	498	4.825795926	0.05
0	508	4.906773051	0.05
0	508	4.994621377	0.05
0	518	5.079333035	0.05
0	528	5.151891232	0.05
0	538	5.2380512	0.05
0	548	5.36212559	0.05
0	558	5.456883732	0.05
0	569	5.5049876935	0.05
0	569	5.5151838412	0.05
0	569	5.5233958586	0.05
0	569	5.5320608103	0.05
0	569	5.5385730971	0.05
0	569	5.5470420889	0.05
0	569	5.5563229698	0.05
0	569	5.563985805	0.05
0	569	5.570854292	0.05
0	569	5.577777882	0.05
0	569	5.5870740211	0.05
0	569	5.5974713063	0.05
0	570	5.6	0.05
0	580	5.672922902	0.05
0	600	5.839555496	0.05
0	610	5.961093466	0.05
0	620	6.055447182	0.05
0	631	6.143644123	0.05
0	641	6.259284372	0.05
0	651	6.375088418	0.05
0	661	6.460439414	0.05
0	671	6.551948667	0.05
0	681	6.642902853	0.05
0	691	6.795907486	0.05
0	711	6.920152394	0.05
0	721	7.080172232	0.05
0	741	7.223267948	0.05
0	751	7.340352225	0.05
0	761	7.438157171	0.05
0	781	7.605516736	0.05
0	781	7.691762481	0.05
0	791	7.785144397	0.05
0	801	7.899263074	0.05
0	811	7.998792866	0.05
0	821	8.092765055	0.05
0	831	8.189529242	0.05
0	841	8.276127813	0.05
0	851	8.368362386	0.05
0	861	8.441708436	0.05
0	871	8.522827279	0.05
0	881	8.617592107	0.05
0	881	8.699867421	0.05
0	891	8.782896593	0.05
0	901	8.899999369	0.05
0	911	8.996750699	0.05
0	921	9.076007037	0.05
0	931	9.168509232	0.05
0	941	9.267060411	0.05
0	951	9.351373192	0.05
0	961	9.443012053	0.05
0	971	9.538507312	0.05
0	981	9.620975275	0.05
0	991	9.712118854	0.05
0	1001	9.809882992	0.05
0	1011	9.906475636	0.05
0	1011	9.997231398	0.05
0	1021	10.083391045	0.05
0	1031	10.197665882	0.05
0	1041	10.272263914	0.05
0	1051	10.363792447	0.05
0	1061	10.462003777	0.05
0	1071	10.553417949	0.05
0	1081	10.684795193	0.05
0	1091	10.783242467	0.05
0	1101	10.88196016	0.05
0	1111	10.968319736	0.05
0	1121	11.064600591	0.05
0	1131	11.150633445	0.05
0	1141	11.266977883	0.05
0	1151	11.388010418	0.05
0	1161	11.479435896	0.05
0	1171	11.571719849	0.05
0	1181	11.662613671	0.05
0	1191	11.752404968	0.05
0	1201	11.880497244	0.05
0	1221	12.01116614	0.05
0	1231	12.121774421	0.05
0	1241	12.204074462	0.05
0	1241	12.2982658	0.05
0	1251	12.390752673	0.05
0	1261	12.47949882	0.05
0	1281	12.609167656	0.05
0	1291	12.706629436	0.05
0	1301	12.81738241	0.05
0	1311	12.913043289	0.05
0	1321	13.055839473	0.05
0	1331	13.188026761	0.05
0	1341	13.285091841	0.05
0	1351	13.370008343	0.05
0	1361	13.484992952	0.05
0	1372	13.578861607	0.05
0	1382	13.678934661	0.05
0	1392	13.77371361	0.05
0	1402	13.89625413	0.05
0	1412	13.978462887	0.05
0	1422	14.066780384	0.05
0	1432	14.157645376	0.05
0	1442	14.253518901	0.05
0	1452	14.371621902	0.05
0	1462	14.471391153	0.05
0	1472	14.591190423	0.05
0	1492	14.72038391	0.05
0	1502	14.84035624	0.05
0	1512	14.952783371	0.05
0	1522	15.07369834	0.05
0	1532	15.17086344	0.05
0	1542	15.264785443	0.05
0	1552	15.350095726	0.05
0	1562	15.470322937	0.05
0	1572	15.59287516	0.05
0	1592	15.711370413	0.05
0	1602	15.851307695	0.05
0	1612	15.974312122	0.05
0	1633	16.106307182	0.05
0	1643	16.274303416	0.05
0	1663	16.485659394	0.05
0	1683	16.629958393	0.05
0	1693	16.768884726	0.05
0	1703	16.867451436	0.05
0	1713	16.977385672	0.05
0	1723	17.088957052	0.05
0	1733	17.175629916	0.05
0	1743	17.28743159	0.05
0	1753	17.398025437	0.05
0	1773	17.529112331	0.05
0	1783	17.626545144	0.05
0	1793	17.778754441	0.05
0	1803	17.878297016	0.05
0	1823	18.023481492	0.05
0	1833	18.185917486	0.05
0	1853	18.348572339	0.05
0	1874	18.525619188	0.05
0	1884	18.691019724	0.05
0	1904	18.864780586	0.05
0	1924	19.037562123	0.05
0	1934	19.177883074	0.05
0	1955	19.321210307	0.05
0	1965	19.43925465	0.05
0	1975	19.553341272	0.05
0	1985	19.664673358	0.05
0	1995	19.758698045	0.05
0	2005	19.855167443	0.05
0	2015	19.986143709	0.05
0	2035	20.112358307	0.05
0	2045	20.242375808	0.05
0	2055	20.361830206	0.05
0	2065	20.460045147	0.05
0	2075	20.56003255	0.05
0	2095	20.726184114	0.05
0	2105	20.893750834	0.05
0	2125	21.015649568	0.05
0	2135	21.146040608	0.05
0	2145	21.258443148	0.05
0	2155	21.34764229	0.05
0	2165	21.465891185	0.05
0	2175	21.586495846	0.05
0	2185	21.686134789	0.05
0	2195	21.779034176	0.05
0	2205	21.899526369	0.05
0	2225	22.014411606	0.05
0	2225	22.095528679	0.05
0	2245	22.223426994	0.05
0	2255	22.337981358	0.05
0	2265	22.453374208	0.05
0	2275	22.53883161	0.05
0	2285	22.632700525	0.05
0	2295	22.724889541	0.05
0	2305	22.818280793	0.05
0	2315	22.940445543	0.05
0	2325	23.068143553	0.05
0	2335	23.187547339	0.05
0	2355	23.312063982	0.05
0	2365	23.42550412	0.05
0	2375	23.54240028	0.05
0	2385	23.667237888	0.05
0	2405	23.830950559	0.05
0	2415	23.918551177	0.05
0	2426	24.031189356	0.05
0	2436	24.129713996	0.05
0	2446	24.263433496	0.05
0	2457	24.362361123	0.05
0	2477	24.505222739	0.05
0	2487	24.621286983	0.05
0	2497	24.720338861	0.05
0	2507	24.813451816	0.05
0	2517	24.907295146	0.05
0	2527	25.046698467	0.05
0	2537	25.195023864	0.05
0	2557	25.370069663	0.05
0	2577	25.53532357	0.05
0	2578	25.53579685873	0.05
0	2588	25.695221113	0.05
0	2608	25.866544578	0.05
0	2618	25.99706004	0.05
0	2638	26.143475178	0.05
0	2648	26.269918411	0.05
0	2659	26.391775417	0.05
0	2679	26.514264123	0.05
0	2689	26.635462708	0.05
0	2699	26.76234481	0.05
0	2709	26.879343897	0.05
0	2729	27.007146585	0.05
0	2739	27.133399547	0.05
0	2749	27.262235951	0.05
0	2759	27.371031735	0.05
0	2769	27.490563078	0.05
0	2789	27.614324828	0.05
0	2799	27.73675246	0.05
0	2809	27.860444999	0.05
0	2819	27.994265097	0.05
0	2839	28.121355829	0.05
0	2849	28.239999212	0.05
0	2859	28.334853199	0.05
0	2869	28.457547339	0.05
0	2879	28.59146898	0.05
0	2899	28.75887712	0.05
0	2919	28.942497464	0.05
0	2929	29.098406126	0.05
0	2949	29.263750241	0.05
0	2969	29.413427306	0.05
0	2979	29.531551082	0.05
0	2989	29.620613086	0.05
0	2999	29.709326933	0.05
0	3009	29.8077056	0.05
0	3019	29.943037287	0.05
0	3029	30.033604971	0.05
0	3039	30.146755901	0.05
0	3049	30.242890834	0.05
0	3059	30.357864786	0.05
0	3069	30.476802176	0.05
0	3089	30.602634111	0.05
0	3099	30.716366319	0.05
0	3109	30.837063711	0.05
0	3119	30.963714527	0.05
0	3129	31.056487872	0.05
0	3139	31.172867098	0.05
0	3149	31.299515167	0.05
0	3169	31.418774571	0.05
0	3179	31.51779012	0.05
0	3189	31.615082932	0.05
0	3199	31.712792248	0.05
0	3209	31.804891526	0.05
0	3220	31.93880111	0.05
0	3232	32.083944831	0.05
0	3249	32.217539255	0.05
0	3260	32.35423953	0.05
0	3272	32.493013721	0.05
0	3289	32.612748717	0.05
0	3300	32.73864047	0.05
0	3311	32.87037463	0.05
0	3321	32.968982287	0.05
0	3339	33.102661028	0.05
0	3350	33.237892441	0.05
0	3361	33.372423414	0.05
0	3379	33.508431344	0.05
0	3391	33.636845862	0.05
0	3402	33.769673876	0.05
0	3413	33.896386864	0.05
0	3423	33.99569248	0.05
0	3440	34.117739126	0.05
0	3451	34.245419294	0.05
0	3462	34.378485602	0.05
0	3480	34.50932938	0.05
0	3491	34.64387516	0.05
0	3503	34.786371588	0.05
0	3520	34.907175059	0.05
0	3531	35.044982748	0.05
0	3542	35.163031282	0.05
0	3552	35.277774876	0.05
0	3562	35.373879173	0.05
0	3573	35.492709996	0.05
0	3590	35.619904839	0.05
0	3602	35.767060557	0.05
0	3613	35.891865407	0.05
0	3623	35.988267085	0.05
0	3633	36.086522058	0.05
0	3660	36.304791955	0.05
0	3680	36.50774725	0.05
0	3692	36.673746133	0.05
0	3710	36.821919871	0.05
0	3721	36.942059071	0.05
0	3741	37.13646116	0.05
0	3762	37.336077925	0.05
0	3781	37.512803132	0.05
0	3793	37.657535865	0.05
0	3803	37.776375861	0.05
0	3821	37.902841785	0.05
0	3831	38.019358748	0.05
0	3841	38.111783644	0.05
0	3851	38.205678969	0.05
0	3871	38.412631124	0.05
0	3893	38.666250574	0.05
0	3921	38.908069725	0.05
0	3934	39.084042448	0.05
0	3961	39.318459533	0.05
0	3981	39.51870999	0.05
0	3994	39.674256079	0.05
0	4012	39.838000618	0.05
0	4042	40.137139589	0.05
0	4058	40.3	0.05
0	4076	40.492793238	0.05
1	0	0	0.004
1	2578	25.53579685873	0
2	0	0	0.05
2	0	0.1	0.05
2	10	0.103240267	0.05
2	10	0.157755902	0.05
2	20	0.217890373	0.05
2	20	0.285045537	0.05
2	30	0.343419728	0.05
2	40	0.419274093	0.05
2	41	0.48538859	0.05
2	51	0.561336552	0.05
2	61	0.629822621	0.05
2	71	0.715743898	0.05
2	81	0.867675319	0.05
2	91	0.951774976	0.05
2	101	1.041873066	0.05
2	111	1.135548601	0.05
2	131	1.317741504	0.05
2	141	1.414481464	0.05
2	151	1.505968187	0.05
2	151	1.574696536	0.05
2	161	1.656302937	0.05
2	171	1.753955225	0.05
2	181	1.835818891	0.05
2	191	1.907279328	0.05
2	191	1.989072049	0.05
2	201	2.05063363	0.05
2	211	2.123810671	0.05
2	211	2.18749591	0.05
2	221	2.251167723	0.05
2	231	2.321895885	0.05
2	231	2.395006588	0.05
2	241	2.464429055	0.05
2	251	2.563070089	0.05
2	261	2.651166208	0.05
2	271	2.739942518	0.05
2	281	2.840074637	0.05
2	291	2.976303806	0.05
2	292	3	0.05
2	302	3.0204370462	0.05
2	302	3.029961033	0.05
2	302	3.039414732	0.05
2	302	3.0462116037	0.05
2	302	3.0514183952	0.05
2	302	3.0568433649	0.05
2	302	3.0622820143	0.05
2	302	3.0682666334	0.05
2	302	3.0754062011	0.05
2	302	3.083415495	0.05
2	302	3.0908709453	0.05
2	302	3.0986779893	0.05
2	303	3.1	0.05
2	313	3.1075079116	0.05
2	313	3.1166837477	0.05
2	313	3.1228203929	0.05
2	313	3.1301081614	0.05
2	313	3.1402179337	0.05
2	313	3.1463138506	0.05
2	313	3.1540695492	0.05
2	313	3.1598488487	0.05
2	313	3.1684572675	0.05
2	313	3.1750732273	0.05
2	313	3.1826048862	0.05
2	313	3.1896406105	0.05
2	313	3.1975426157	0.05
2	314	3.2	0.05
2	324	3.2092730088	0.05
2	324	3.2177530704	0.05
2	324	3.2232503361	0.05
2	324	3.2296644381	0.05
2	324	3.2348874578	0.05
2	324	3.2393330345	0.05
2	324	3.2467952954	0.05
2	324	3.2523589084	0.05
2	324	3.2576059318	0.05
2	324	3.2619051101	0.05
2	324	3.2675537761	0.05
2	324	3.2726286614	0.05
2	324	3.2800670441	0.05
2	324	3.2877794413	0.05
2	324	3.2951863377	0.05
2	325	3.3	0.05
2	335	3.3070414205	0.05
2	335	3.3163222917	0.05
2	335	3.3248627443	0.05
2	335	3.3346727726	0.05
2	335	3.3425441976	0.05
2	335	3.3489168291	0.05
2	335	3.3585434824	0.05
2	335	3.374182598	0.05
2	335	3.3864476816	0.05
2	335	3.3920275563	0.05
2	335	3.3996686711	0.05
2	336	3.4	0.05
2	346	3.4087509837	0.05
2	346	3.4185645727	0.05
2	346	3.4255560025	0.05
2	346	3.4328291841	0.05
2	346	3.4398470214	0.05
2	346	3.4471644819	0.05
2	346	3.4553202311	0.05
2	346	3.4647163792	0.05
2	346	3.4727710037	0.05
2	346	3.4831906225	0.05
2	346	3.4909592685	0.05
2	346	3.4991823311	0.05
2	347	3.5	0.05
2	357	3.5061643303	0.05
2	357	3.5153273753	0.05
2	357	3.5244735373	0.05
2	357	3.531817779	0.05
2	357	3.5393027482	0.05
2	357	3.5476445676	0.05
2	357	3.5538601737	0.05
2	357	3.5616112246	0.05
2	357	3.5675392383	0.05
2	357	3.5744603228	0.05
2	357	3.5839772017	0.05
2	357	3.590733817	0.05
2	357	3.5982550522	0.05
2	358	3.6	0.05
2	368	3.6083497408	0.05
2	368	3.6171514082	0.05
2	368	3.6255845523	0.05
2	368	3.6336247775	0.05
2	368	3.6414985088	0.05
2	368	3.6492488006	0.05
2	368	3.6582538587	0.05
2	368	3.6659366643	0.05
2	368	3.6731222908	0.05
2	368	3.6808237685	0.05
2	368	3.6895153457	0.05
2	368	3.6960762252	0.05
2	369	3.7	0.05
2	379	3.7085292406	0.05
2	379	3.7171454273	0.05
2	379	3.727926571	0.05
2	379	3.7395330376	0.05
2	379	3.7478949161	0.05
2	379	3.756869272	0.05
2	379	3.7667423765	0.05
2	379	3.7784600966	0.05
2	379	3.7888556276	0.05
2	379	3.796521971	0.05
2	380	3.8	0.05
2	390	3.809191325	0.05
2	390	3.817951401	0.05
2	390	3.8283395153	0.05
2	390	3.837142554	0.05
2	390	3.8459378136	0.05
2	390	3.8530863943	0.05
2	390	3.8599286721	0.05
2	390	3.8653088274	0.05
2	390	3.8737616442	0.05
2	390	3.8807346837	0.05
2	390	3.8904457425	0.05
2	390	3.8999566614	0.05
2	391	3.9	0.05
2	401	3.9079040997	0.05
2	401	3.9166702763	0.05
2	401	3.9249410031	0.05
2	401	3.9331412004	0.05
2	401	3.9410036622	0.05
2	401	3.9484589131	0.05
2	401	3.9562574326	0.05
2	401	3.9641409598	0.05
2	401	3.9724967677	0.05
2	401	3.9796555378	0.05
2	401	3.9892458813	0.05
2	401	3.9968079201	0.05
2	402	4	0.05
2	412	4.009586077	0.05
2	412	4.017386239	0.05
2	412	4.0260762452	0.05
2	412	4.0319007624	0.05
2	412	4.0402344772	0.05
2	412	4.0471103927	0.05
2	413	4.0553078892	0.05
2	413	4.0614344277	0.05
2	413	4.068238628	0.05
2	413	4.0800996966	0.05
2	413	4.0882801602	0.05
2	413	4.0969212518	0.05
2	414	4.1	0.05
2	424	4.1099209461	0.05
2	424	4.1244359195	0.05
2	424	4.1307996046	0.05
2	424	4.1394888275	0.05
2	424	4.1467656047	0.05
2	424	4.1552184003	0.05
2	424	4.1623741158	0.05
2	424	4.1718416624	0.05
2	424	4.1790042434	0.05
2	424	4.1861069657	0.05
2	424	4.1936139451	0.05
2	424	4.1999733814	0.05
2	425	4.2	0.05
2	435	4.2074531891	0.05
2	435	4.215791983	0.05
2	435	4.2229006476	0.05
2	435	4.2307310955	0.05
2	435	4.2375503308	0.05
2	435	4.2453713246	0.05
2	435	4.2559169762	0.05
2	435	4.2665802041	0.05
2	435	4.2746632351	0.05
2	435	4.2833692978	0.05
2	435	4.2914747921	0.05
2	435	4.2993925898	0.05
2	436	4.3	0.05
2	446	4.306797128	0.05
2	446	4.3175040139	0.05
2	446	4.3244029293	0.05
2	446	4.3297828894	0.05
2	446	4.3383351481	0.05
2	446	4.3480023466	0.05
2	446	4.358298429	0.05
2	446	4.3670816315	0.05
2	446	4.3735372165	0.05
2	446	4.3806810748	0.05
2	446	4.3866291508	0.05
2	446	4.39476731	0.05
2	447	4.4	0.05
2	457	4.4078570132	0.05
2	457	4.416896254	0.05
2	457	4.4272643286	0.05
2	457	4.4358623655	0.05
2	457	4.4453776008	0.05
2	457	4.4511067306	0.05
2	457	4.4588465177	0.05
2	457	4.4664762974	0.05
2	457	4.4749703114	0.05
2	457	4.4839549458	0.05
2	457	4.4941503131	0.05
2	458	4.5	0.05
2	468	4.575892368	0.05
2	478	4.666268957	0.05
2	488	4.7506722	0.05
2	498	4.825795926	0.05
2	508	4.906773051	0.05
2	508	4.994621377	0.05
2	518	5.079333035	0.05
2	528	5.151891232	0.05
2	538	5.2380512	0.05
2	548	5.36212559	0.05
2	558	5.456883732	0.05
2	569	5.5049876935	0.05
2	569	5.5151838412	0.05
2	569	5.5233958586	0.05
2	569	5.5320608103	0.05
2	569	5.5385730971	0.05
2	569	5.5470420889	0.05
2	569	5.5563229698	0.05
2	569	5.563985805	0.05
2	569	5.570854292	0.05
2	569	5.577777882	0.05
2	569	5.5870740211	0.05
2	569	5.5974713063	0.05
2	570	5.6	0.05
2	580	5.672922902	0.05
2	600	5.839555496	0.05
2	610	5.961093466	0.05
2	620	6.055447182	0.05
2	631	6.143644123	0.05
2	641	6.259284372	0.05
2	651	6.375088418	0.05
2	661	6.460439414	0.05
2	671	6.551948667	0.05
2	681	6.642902853	0.05
2	691	6.795907486	0.05
2	711	6.920152394	0.05
2	721	7.080172232	0.05
2	741	7.223267948	0.05
2	751	7.340352225	0.05
2	761	7.438157171	0.05
2	781	7.605516736	0.05
2	781	7.691762481	0.05
2	791	7.785144397	0.05
2	801	7.899263074	0.05
2	811	7.998792866	0.05
2	821	8.092765055	0.05
2	831	8.189529242	0.05
2	841	8.276127813	0.05
2	851	8.368362386	0.05
2	861	8.441708436	0.05
2	871	8.522827279	0.05
2	881	8.617592107	0.05
2	881	8.699867421	0.05
2	891	8.782896593	0.05
2	901	8.899999369	0.05
2	911	8.996750699	0.05
2	921	9.076007037	0.05
2	931	9.168509232	0.05
2	941	9.267060411	0.05
2	951	9.351373192	0.05
2	961	9.443012053	0.05
2	971	9.538507312	0.05
2	981	9.620975275	0.05
2	991	9.712118854	0.05
2	1001	9.809882992	0.05
2	1011	9.906475636	0.05
2	1011	9.997231398	0.05
2	1021	10.083391045	0.05
2	1031	10.197665882	0.05
2	1041	10.272263914	0.05
2	1051	10.363792447	0.05
2	1061	10.462003777	0.05
2	1071	10.553417949	0.05
2	1081	10.684795193	0.05
2	1091	10.783242467	0.05
2	1101	10.88196016	0.05
2	1111	10.968319736	0.05
2	1121	11.064600591	0.05
2	1131	11.150633445	0.05
2	1141	11.266977883	0.05
2	1151	11.388010418	0.05
2	1161	11.479435896	0.05
2	1171	11.571719849	0.05
2	1181	11.662613671	0.05
2	1191	11.752404968	0.05
2	1201	11.880497244	0.05
2	1221	12.01116614	0.05
2	1231	12.121774421	0.05
2	1241	12.204074462	0.05
2	1241	12.2982658	0.05
2	1251	12.390752673	0.05
2	1261	12.47949882	0.05
2	1281	12.609167656	0.05
2	1291	12.706629436	0.05
2	1301	12.81738241	0.05
2	1311	12.913043289	0.05
2	1321	13.055839473	0.05
2	1331	13.188026761	0.05
2	1341	13.285091841	0.05
2	1351	13.370008343	0.05
2	1361	13.484992952	0.05
2	1372	13.578861607	0.05
2	1382	13.678934661	0.05
2	1392	13.77371361	0.05
2	1402	13.89625413	0.05
2	1412	13.978462887	0.05
2	1422	14.066780384	0.05
2	1432	14.157645376	0.05
2	1442	14.253518901	0.05
2	1452	14.371621902	0.05
2	1462	14.471391153	0.05
2	1472	14.591190423	0.05
2	1492	14.72038391	0.05
2	1502	14.84035624	0.05
2	1512	14.952783371	0.05
2	1522	15.07369834	0.05
2	1532	15.17086344	0.05
2	1542	15.264785443	0.05
2	1552	15.350095726	0.05
2	1562	15.470322937	0.05
2	1572	15.59287516	0.05
2	1592	15.711370413	0.05
2	1602	15.851307695	0.05
2	1612	15.974312122	0.05
2	1633	16.106307182	0.05
2	1643	16.274303416	0.05
2	1663	16.485659394	0.05
2	1683	16.629958393	0.05
2	1693	16.768884726	0.05
2	1703	16.867451436	0.05
2	1713	16.977385672	0.05
2	1723	17.088957052	0.05
2	1733	17.175629916	0.05
2	1743	17.28743159	0.05
2	1753	17.398025437	0.05
2	1773	17.529112331	0.05
2	1783	17.626545144	0.05
2	1793	17.778754441	0.05
2	1803	17.878297016	0.05
2	1823	18.023481492	0.05
2	1833	18.185917486	0.05
2	1853	18.348572339	0.05
2	1874	18.525619188	0.05
2	1884	18.691019724	0.05
2	1904	18.864780586	0.05
2	1924	19.037562123	0.05
2	1934	19.177883074	0.05
2	1945	19.270866461683	0.05
2	1955	19.321210307	0.05
2	1965	19.43925465	0.05
2	1975	19.553341272	0.05
2	1985	19.664673358	0.05
2	1995	19.758698045	0.05
2	2005	19.855167443	0.05
2	2015	19.986143709	0.05
2	2035	20.112358307	0.05
2	2045	20.242375808	0.05
2	2055	20.361830206	0.05
2	2065	20.460045147	0.05
2	2075	20.56003255	0.05
2	2095	20.726184114	0.05
2	2105	20.893750834	0.05
2	2125	21.015649568	0.05
2	2135	21.146040608	0.05
2	2145	21.258443148	0.05
2	2155	21.34764229	0.05
2	2165	21.465891185	0.05
2	2175	21.586495846	0.05
2	2185	21.686134789	0.05
2	2195	21.779034176	0.05
2	2205	21.899526369	0.05
2	2225	22.014411606	0.05
2	2225	22.095528679	0.05
2	2245	22.223426994	0.05
2	2255	22.337981358	0.05
2	2265	22.453374208	0.05
2	2275	22.53883161	0.05
2	2285	22.632700525	0.05
2	2295	22.724889541	0.05
2	2305	22.818280793	0.05
2	2315	22.940445543	0.05
2	2325	23.068143553	0.05
2	2335	23.187547339	0.05
2	2355	23.312063982	0.05
2	2365	23.42550412	0.05
2	2375	23.54240028	0.05
2	2385	23.667237888	0.05
2	2405	23.830950559	0.05
2	2415	23.918551177	0.05
2	2426	24.031189356	0.05
2	2436	24.129713996	0.05
2	2446	24.263433496	0.05
2	2457	24.362361123	0.05
2	2477	24.505222739	0.05
2	2487	24.621286983	0.05
2	2497	24.720338861	0.05
2	2507	24.813451816	0.05
2	2517	24.907295146	0.05
2	2527	25.046698467	0.05
2	2537	25.195023864	0.05
2	2557	25.370069663	0.05
2	2577	25.53532357	0.05
2	2588	25.695221113	0.05
2	2608	25.866544578	0.05
2	2618	25.99706004	0.05
2	2638	26.143475178	0.05
2	2648	26.269918411	0.05
2	2659	26.391775417	0.05
2	2679	26.514264123	0.05
2	2689	26.635462708	0.05
2	2699	26.76234481	0.05
2	2709	26.879343897	0.05
2	2729	27.007146585	0.05
2	2739	27.133399547	0.05
2	2749	27.262235951	0.05
2	2759	27.371031735	0.05
2	2769	27.490563078	0.05
2	2789	27.614324828	0.05
2	2799	27.73675246	0.05
2	2809	27.860444999	0.05
2	2819	27.994265097	0.05
2	2839	28.121355829	0.05
2	2849	28.239999212	0.05
2	2859	28.334853199	0.05
2	2869	28.457547339	0.05
2	2879	28.59146898	0.05
2	2899	28.75887712	0.05
2	2919	28.942497464	0.05
2	2929	29.098406126	0.05
2	2949	29.263750241	0.05
2	2969	29.413427306	0.05
2	2979	29.531551082	0.05
2	2989	29.620613086	0.05
2	2999	29.709326933	0.05
2	3009	29.8077056	0.05
2	3019	29.943037287	0.05
2	3029	30.033604971	0.05
2	3039	30.146755901	0.05
2	3049	30.242890834	0.05
2	3059	30.357864786	0.05
2	3069	30.476802176	0.05
2	3089	30.602634111	0.05
2	3099	30.716366319	0.05
2	3109	30.837063711	0.05
2	3119	30.963714527	0.05
2	3129	31.056487872	0.05
2	3139	31.172867098	0.05
2	3149	31.299515167	0.05
2	3169	31.418774571	0.05
2	3179	31.51779012	0.05
2	3189	31.615082932	0.05
2	3199	31.712792248	0.05
2	3209	31.804891526	0.05
2	3220	31.93880111	0.05
2	3232	32.083944831	0.05
2	3249	32.217539255	0.05
2	3260	32.35423953	0.05
2	3272	32.493013721	0.05
2	3289	32.612748717	0.05
2	3300	32.73864047	0.05
2	3311	32.87037463	0.05
2	3321	32.968982287	0.05
2	3339	33.102661028	0.05
2	3350	33.237892441	0.05
2	3361	33.372423414	0.05
2	3379	33.508431344	0.05
2	3391	33.636845862	0.05
2	3402	33.769673876	0.05
2	3413	33.896386864	0.05
2	3423	33.99569248	0.05
2	3440	34.117739126	0.05
2	3451	34.245419294	0.05
2	3462	34.378485602	0.05
2	3480	34.50932938	0.05
2	3491	34.64387516	0.05
2	3503	34.786371588	0.05
2	3520	34.907175059	0.05
2	3531	35.044982748	0.05
2	3542	35.163031282	0.05
2	3552	35.277774876	0.05
2	3562	35.373879173	0.05
2	3573	35.492709996	0.05
2	3590	35.619904839	0.05
2	3602	35.767060557	0.05
2	3613	35.891865407	0.05
2	3623	35.988267085	0.05
2	3633	36.086522058	0.05
2	3660	36.304791955	0.05
2	3680	36.50774725	0.05
2	3692	36.673746133	0.05
2	3710	36.821919871	0.05
2	3721	36.942059071	0.05
2	3741	37.13646116	0.05
2	3762	37.336077925	0.05
2	3781	37.512803132	0.05
2	3793	37.657535865	0.05
2	3803	37.776375861	0.05
2	3821	37.902841785	0.05
2	3831	38.019358748	0.05
2	3841	38.111783644	0.05
2	3851	38.205678969	0.05
2	3871	38.412631124	0.05
2	3893	38.666250574	0.05
2	3921	38.908069725	0.05
2	3934	39.084042448	0.05
2	3961	39.318459533	0.05
2	3981	39.51870999	0.05
2	3994	39.674256079	0.05
2	4012	39.838000618	0.05
2	4042	40.137139589	0.05
2	4058	40.3	0.05
2	4076	40.492793238	0.05
3	0	0	0.004
3	1945	19.270866461683	0
4	0	0	0.05
4	0	0.1	0.05
4	10	0.103240267	0.05
4	10	0.157755902	0.05
4	20	0.217890373	0.05
4	20	0.285045537	0.05
4	30	0.343419728	0.05
4	40	0.419274093	0.05
4	41	0.48538859	0.05
4	51	0.561336552	0.05
4	61	0.629822621	0.05
4	71	0.715743898	0.05
4	81	0.867675319	0.05
4	91	0.951774976	0.05
4	101	1.041873066	0.05
4	111	1.135548601	0.05
4	131	1.317741504	0.05
4	141	1.414481464	0.05
4	151	1.505968187	0.05
4	151	1.574696536	0.05
4	161	1.656302937	0.05
4	171	1.753955225	0.05
4	181	1.835818891	0.05
4	191	1.907279328	0.05
4	191	1.989072049	0.05
4	201	2.05063363	0.05
4	211	2.123810671	0.05
4	211	2.18749591	0.05
4	221	2.251167723	0.05
4	231	2.321895885	0.05
4	231	2.395006588	0.05
4	241	2.464429055	0.05
4	251	2.563070089	0.05
4	261	2.651166208	0.05
4	271	2.739942518	0.05
4	281	2.840074637	0.05
4	291	2.976303806	0.05
4	292	3	0.05
4	302	3.0204370462	0.05
4	302	3.029961033	0.05
4	302	3.039414732	0.05
4	302	3.0462116037	0.05
4	302	3.0514183952	0.05
4	302	3.0568433649	0.05
4	302	3.0622820143	0.05
4	302	3.0682666334	0.05
4	302	3.0754062011	0.05
4	302	3.083415495	0.05
4	302	3.0908709453	0.05
4	302	3.0986779893	0.05
4	303	3.1	0.05
4	313	3.1075079116	0.05
4	313	3.1166837477	0.05
4	313	3.1228203929	0.05
4	313	3.1301081614	0.05
4	313	3.1402179337	0.05
4	313	3.1463138506	0.05
4	313	3.1540695492	0.05
4	313	3.1598488487	0.05
4	313	3.1684572675	0.05
4	313	3.1750732273	0.05
4	313	3.1826048862	0.05
4	313	3.1896406105	0.05
4	313	3.1975426157	0.05
4	314	3.2	0.05
4	324	3.2092730088	0.05
4	324	3.2177530704	0.05
4	324	3.2232503361	0.05
4	324	3.2296644381	0.05
4	324	3.2348874578	0.05
4	324	3.2393330345	0.05
4	324	3.2467952954	0.05
4	324	3.2523589084	0.05
4	324	3.2576059318	0.05
4	324	3.2619051101	0.05
4	324	3.2675537761	0.05
4	324	3.2726286614	0.05
4	324	3.2800670441	0.05
4	324	3.2877794413	0.05
4	324	3.2951863377	0.05
4	325	3.3	0.05
4	335	3.3070414205	0.05
4	335	3.3163222917	0.05
4	335	3.3248627443	0.05
4	335	3.3346727726	0.05
4	335	3.3425441976	0.05
4	335	3.3489168291	0.05
4	335	3.3585434824	0.05
4	335	3.374182598	0.05
4	335	3.3864476816	0.05
4	335	3.3920275563	0.05
4	335	3.3996686711	0.05
4	336	3.4	0.05
4	346	3.4087509837	0.05
4	346	3.4185645727	0.05
4	346	3.4255560025	0.05
4	346	3.4328291841	0.05
4	346	3.4398470214	0.05
4	346	3.4471644819	0.05
4	346	3.4553202311	0.05
4	346	3.4647163792	0.05
4	346	3.4727710037	0.05
4	346	3.4831906225	0.05
4	346	3.4909592685	0.05
4	346	3.4991823311	0.05
4	347	3.5	0.05
4	357	3.5061643303	0.05
4	357	3.5153273753	0.05
4	357	3.5244735373	0.05
4	357	3.531817779	0.05
4	357	3.5393027482	0.05
4	357	3.5476445676	0.05
4	357	3.5538601737	0.05
4	357	3.5616112246	0.05
4	357	3.5675392383	0.05
4	357	3.5744603228	0.05
4	357	3.5839772017	0.05
4	357	3.590733817	0.05
4	357	3.5982550522	0.05
4	358	3.6	0.05
4	368	3.6083497408	0.05
4	368	3.6171514082	0.05
4	368	3.6255845523	0.05
4	368	3.6336247775	0.05
4	368	3.6414985088	0.05
4	368	3.6492488006	0.05
4	368	3.6582538587	0.05
4	368	3.6659366643	0.05
4	368	3.6731222908	0.05
4	368	3.6808237685	0.05
4	368	3.6895153457	0.05
4	368	3.6960762252	0.05
4	369	3.7	0.05
4	379	3.7085292406	0.05
4	379	3.7171454273	0.05
4	379	3.727926571	0.05
4	379	3.7395330376	0.05
4	379	3.7478949161	0.05
4	379	3.756869272	0.05
4	379	3.7667423765	0.05
4	379	3.7784600966	0.05
4	379	3.7888556276	0.05
4	379	3.796521971	0.05
4	380	3.8	0.05
4	390	3.809191325	0.05
4	390	3.817951401	0.05
4	390	3.8283395153	0.05
4	390	3.837142554	0.05
4	390	3.8459378136	0.05
4	390	3.8530863943	0.05
4	390	3.8599286721	0.05
4	390	3.8653088274	0.05
4	390	3.8737616442	0.05
4	390	3.8807346837	0.05
4	390	3.8904457425	0.05
4	390	3.8999566614	0.05
4	391	3.9	0.05
4	401	3.9079040997	0.05
4	401	3.9166702763	0.05
4	401	3.9249410031	0.05
4	401	3.9331412004	0.05
4	401	3.9410036622	0.05
4	401	3.9484589131	0.05
4	401	3.9562574326	0.05
4	401	3.9641409598	0.05
4	401	3.9724967677	0.05
4	401	3.9796555378	0.05
4	401	3.9892458813	0.05
4	401	3.9968079201	0.05
4	402	4	0.05
4	412	4.009586077	0.05
4	412	4.017386239	0.05
4	412	4.0260762452	0.05
4	412	4.0319007624	0.05
4	412	4.0402344772	0.05
4	412	4.0471103927	0.05
4	413	4.0553078892	0.05
4	413	4.0614344277	0.05
4	413	4.068238628	0.05
4	413	4.0800996966	0.05
4	413	4.0882801602	0.05
4	413	4.0969212518	0.05
4	414	4.1	0.05
4	424	4.1099209461	0.05
4	424	4.1244359195	0.05
4	424	4.1307996046	0.05
4	424	4.1394888275	0.05
4	424	4.1467656047	0.05
4	424	4.1552184003	0.05
4	424	4.1623741158	0.05
4	424	4.1718416624	0.05
4	424	4.1790042434	0.05
4	424	4.1861069657	0.05
4	424	4.1936139451	0.05
4	424	4.1999733814	0.05
4	425	4.2	0.05
4	435	4.2074531891	0.05
4	435	4.215791983	0.05
4	435	4.2229006476	0.05
4	435	4.2307310955	0.05
4	435	4.2375503308	0.05
4	435	4.2453713246	0.05
4	435	4.2559169762	0.05
4	435	4.2665802041	0.05
4	435	4.2746632351	0.05
4	435	4.2833692978	0.05
4	435	4.2914747921	0.05
4	435	4.2993925898	0.05
4	436	4.3	0.05
4	446	4.306797128	0.05
4	446	4.3175040139	0.05
4	446	4.3244029293	0.05
4	446	4.3297828894	0.05
4	446	4.3383351481	0.05
4	446	4.3480023466	0.05
4	446	4.358298429	0.05
4	446	4.3670816315	0.05
4	446	4.3735372165	0.05
4	446	4.3806810748	0.05
4	446	4.3866291508	0.05
4	446	4.39476731	0.05
4	447	4.4	0.05
4	457	4.4078570132	0.05
4	457	4.416896254	0.05
4	457	4.4272643286	0.05
4	457	4.4358623655	0.05
4	457	4.4453776008	0.05
4	457	4.4511067306	0.05
4	457	4.4588465177	0.05
4	457	4.4664762974	0.05
4	457	4.4749703114	0.05
4	457	4.4839549458	0.05
4	457	4.4941503131	0.05
4	458	4.5	0.05
4	468	4.575892368	0.05
4	478	4.666268957	0.05
4	488	4.7506722	0.05
4	498	4.825795926	0.05
4	508	4.906773051	0.05
4	508	4.994621377	0.05
4	518	5.079333035	0.05
4	528	5.151891232	0.05
4	538	5.2380512	0.05
4	548	5.36212559	0.05
4	558	5.456883732	0.05
4	569	5.5049876935	0.05
4	569	5.5151838412	0.05
4	569	5.5233958586	0.05
4	569	5.5320608103	0.05
4	569	5.5385730971	0.05
4	569	5.5470420889	0.05
4	569	5.5563229698	0.05
4	569	5.563985805	0.05
4	569	5.570854292	0.05
4	569	5.577777882	0.05
4	569	5.5870740211	0.05
4	569	5.5974713063	0.05
4	570	5.6	0.05
4	580	5.672922902	0.05
4	600	5.839555496	0.05
4	610	5.961093466	0.05
4	620	6.055447182	0.05
4	631	6.143644123	0.05
4	641	6.259284372	0.05
4	651	6.375088418	0.05
4	661	6.460439414	0.05
4	671	6.551948667	0.05
4	681	6.642902853	0.05
4	691	6.795907486	0.05
4	711	6.920152394	0.05
4	721	7.080172232	0.05
4	741	7.223267948	0.05
4	751	7.340352225	0.05
4	761	7.438157171	0.05
4	781	7.605516736	0.05
4	781	7.691762481	0.05
4	791	7.785144397	0.05
4	801	7.899263074	0.05
4	811	7.998792866	0.05
4	821	8.092765055	0.05
4	831	8.189529242	0.05
4	841	8.276127813	0.05
4	851	8.368362386	0.05
4	861	8.441708436	0.05
4	871	8.522827279	0.05
4	881	8.617592107	0.05
4	881	8.699867421	0.05
4	891	8.782896593	0.05
4	901	8.899999369	0.05
4	911	8.996750699	0.05
4	921	9.076007037	0.05
4	931	9.168509232	0.05
4	941	9.267060411	0.05
4	951	9.351373192	0.05
4	961	9.443012053	0.05
4	971	9.538507312	0.05
4	981	9.620975275	0.05
4	991	9.712118854	0.05
4	1001	9.809882992	0.05
4	1011	9.906475636	0.05
4	1011	9.997231398	0.05
4	1021	10.083391045	0.05
4	1031	10.197665882	0.05
4	1041	10.272263914	0.05
4	1051	10.363792447	0.05
4	1061	10.462003777	0.05
4	1071	10.553417949	0.05
4	1081	10.684795193	0.05
4	1091	10.783242467	0.05
4	1101	10.88196016	0.05
4	1111	10.968319736	0.05
4	1121	11.064600591	0.05
4	1131	11.150633445	0.05
4	1141	11.266977883	0.05
4	1151	11.388010418	0.05
4	1161	11.479435896	0.05
4	1171	11.571719849	0.05
4	1181	11.662613671	0.05
4	1191	11.752404968	0.05
4	1201	11.880497244	0.05
4	1221	12.01116614	0.05
4	1231	12.121774421	0.05
4	1241	12.204074462	0.05
4	1241	12.2982658	0.05
4	1251	12.390752673	0.05
4	1261	12.47949882	0.05
4	1281	12.609167656	0.05
4	1291	12.706629436	0.05
4	1301	12.81738241	0.05
4	1311	12.913043289	0.05
4	1321	13.055839473	0.05
4	1331	13.188026761	0.05
4	1341	13.285091841	0.05
4	1351	13.370008343	0.05
4	1361	13.484992952	0.05
4	1372	13.578861607	0.05
4	1382	13.678934661	0.05
4	1392	13.77371361	0.05
4	1402	13.89625413	0.05
4	1412	13.978462887	0.05
4	1422	14.066780384	0.05
4	1432	14.157645376	0.05
4	1442	14.253518901	0.05
4	1452	14.371621902	0.05
4	1462	14.471391153	0.05
4	1472	14.591190423	0.05
4	1492	14.72038391	0.05
4	1502	14.84035624	0.05
4	1512	14.952783371	0.05
4	1522	15.07369834	0.05
4	1532	15.17086344	0.05
4	1542	15.264785443	0.05
4	1552	15.350095726	0.05
4	1562	15.470322937	0.05
4	1572	15.59287516	0.05
4	1592	15.711370413	0.05
4	1602	15.851307695	0.05
4	1612	15.974312122	0.05
4	1633	16.106307182	0.05
4	1643	16.274303416	0.05
4	1663	16.485659394	0.05
4	1683	16.629958393	0.05
4	1693	16.768884726	0.05
4	1703	16.867451436	0.05
4	1713	16.977385672	0.05
4	1723	17.088957052	0.05
4	1733	17.175629916	0.05
4	1743	17.28743159	0.05
4	1753	17.398025437	0.05
4	1773	17.529112331	0.05
4	1783	17.626545144	0.05
4	1793	17.778754441	0.05
4	1803	17.878297016	0.05
4	1823	18.023481492	0.05
4	1833	18.185917486	0.05
4	1853	18.348572339	0.05
4	1864	18.445682293898	0.05
4	1874	18.525619188	0.05
4	1884	18.691019724	0.05
4	1904	18.864780586	0.05
4	1924	19.037562123	0.05
4	1934	19.177883074	0.05
4	1955	19.321210307	0.05
4	1965	19.43925465	0.05
4	1975	19.553341272	0.05
4	1985	19.664673358	0.05
4	1995	19.758698045	0.05
4	2005	19.855167443	0.05
4	2015	19.986143709	0.05
4	2035	20.112358307	0.05
4	2045	20.242375808	0.05
4	2055	20.361830206	0.05
4	2065	20.460045147	0.05
4	2075	20.56003255	0.05
4	2095	20.726184114	0.05
4	2105	20.893750834	0.05
4	2125	21.015649568	0.05
4	2135	21.146040608	0.05
4	2145	21.258443148	0.05
4	2155	21.34764229	0.05
4	2165	21.465891185	0.05
4	2175	21.586495846	0.05
4	2185	21.686134789	0.05
4	2195	21.779034176	0.05
4	2205	21.899526369	0.05
4	2225	22.014411606	0.05
4	2225	22.095528679	0.05
4	2245	22.223426994	0.05
4	2255	22.337981358	0.05
4	2265	22.453374208	0.05
4	2275	22.53883161	0.05
4	2285	22.632700525	0.05
4	2295	22.724889541	0.05
4	2305	22.818280793	0.05
4	2315	22.940445543	0.05
4	2325	23.068143553	0.05
4	2335	23.187547339	0.05
4	2355	23.312063982	0.05
4	2365	23.42550412	0.05
4	2375	23.54240028	0.05
4	2385	23.667237888	0.05
4	2405	23.830950559	0.05
4	2415	23.918551177	0.05
4	2426	24.031189356	0.05
4	2436	24.129713996	0.05
4	2446	24.263433496	0.05
4	2457	24.362361123	0.05
4	2477	24.505222739	0.05
4	2487	24.621286983	0.05
4	2497	24.720338861	0.05
4	2507	24.813451816	0.05
4	2517	24.907295146	0.05
4	2527	25.046698467	0.05
4	2537	25.195023864	0.05
4	2557	25.370069663	0.05
4	2577	25.53532357	0.05
4	2588	25.695221113	0.05
4	2608	25.866544578	0.05
4	2618	25.99706004	0.05
4	2638	26.143475178	0.05
4	2648	26.269918411	0.05
4	2659	26.391775417	0.05
4	2679	26.514264123	0.05
4	2689	26.635462708	0.05
4	2699	26.76234481	0.05
4	2709	26.879343897	0.05
4	2729	27.007146585	0.05
4	2739	27.133399547	0.05
4	2749	27.262235951	0.05
4	2759	27.371031735	0.05
4	2769	27.490563078	0.05
4	2789	27.614324828	0.05
4	2799	27.73675246	0.05
4	2809	27.860444999	0.05
4	2819	27.994265097	0.05
4	2839	28.121355829	0.05
4	2849	28.239999212	0.05
4	2859	28.334853199	0.05
4	2869	28.457547339	0.05
4	2879	28.59146898	0.05
4	2899	28.75887712	0.05
4	2919	28.942497464	0.05
4	2929	29.098406126	0.05
4	2949	29.263750241	0.05
4	2969	29.413427306	0.05
4	2979	29.531551082	0.05
4	2989	29.620613086	0.05
4	2999	29.709326933	0.05
4	3009	29.8077056	0.05
4	3019	29.943037287	0.05
4	3029	30.033604971	0.05
4	3039	30.146755901	0.05
4	3049	30.242890834	0.05
4	3059	30.357864786	0.05
4	3069	30.476802176	0.05
4	3089	30.602634111	0.05
4	3099	30.716366319	0.05
4	3109	30.837063711	0.05
4	3119	30.963714527	0.05
4	3129	31.056487872	0.05
4	3139	31.172867098	0.05
4	3149	31.299515167	0.05
4	3169	31.418774571	0.05
4	3179	31.51779012	0.05
4	3189	31.615082932	0.05
4	3199	31.712792248	0.05
4	3209	31.804891526	0.05
4	3220	31.93880111	0.05
4	3232	32.083944831	0.05
4	3249	32.217539255	0.05
4	3260	32.35423953	0.05
4	3272	32.493013721	0.05
4	3289	32.612748717	0.05
4	3300	32.73864047	0.05
4	3311	32.87037463	0.05
4	3321	32.968982287	0.05
4	3339	33.102661028	0.05
4	3350	33.237892441	0.05
4	3361	33.372423414	0.05
4	3379	33.508431344	0.05
4	3391	33.636845862	0.05
4	3402	33.769673876	0.05
4	3413	33.896386864	0.05
4	3423	33.99569248	0.05
4	3440	34.117739126	0.05
4	3451	34.245419294	0.05
4	3462	34.378485602	0.05
4	3480	34.50932938	0.05
4	3491	34.64387516	0.05
4	3503	34.786371588	0.05
4	3520	34.907175059	0.05
4	3531	35.044982748	0.05
4	3542	35.163031282	0.05
4	3552	35.277774876	0.05
4	3562	35.373879173	0.05
4	3573	35.492709996	0.05
4	3590	35.619904839	0.05
4	3602	35.767060557	0.05
4	3613	35.891865407	0.05
4	3623	35.988267085	0.05
4	3633	36.086522058	0.05
4	3660	36.304791955	0.05
4	3680	36.50774725	0.05
4	3692	36.673746133	0.05
4	3710	36.821919871	0.05
4	3721	36.942059071	0.05
4	3741	37.13646116	0.05
4	3762	37.336077925	0.05
4	3781	37.512803132	0.05
4	3793	37.657535865	0.05
4	3803	37.776375861	0.05
4	3821	37.902841785	0.05
4	3831	38.019358748	0.05
4	3841	38.111783644	0.05
4	3851	38.205678969	0.05
4	3871	38.412631124	0.05
4	3893	38.666250574	0.05
4	3921	38.908069725	0.05
4	3934	39.084042448	0.05
4	3961	39.318459533	0.05
4	3981	39.51870999	0.05
4	3994	39.674256079	0.05
4	4012	39.838000618	0.05
4	4042	40.137139589	0.05
4	4058	40.3	0.05
4	4076	40.492793238	0.05
5	0	0	0.004
5	1864	18.445682293898	0
6	0	0	0.05
6	0	0.1	0.05
6	10	0.103240267	0.05
6	10	0.157755902	0.05
6	20	0.217890373	0.05
6	20	0.285045537	0.05
6	30	0.343419728	0.05
6	40	0.419274093	0.05
6	41	0.48538859	0.05
6	51	0.561336552	0.05
6	61	0.629822621	0.05
6	71	0.715743898	0.05
6	81	0.867675319	0.05
6	91	0.951774976	0.05
6	101	1.041873066	0.05
6	111	1.135548601	0.05
6	131	1.317741504	0.05
6	141	1.414481464	0.05
6	151	1.505968187	0.05
6	151	1.574696536	0.05
6	161	1.656302937	0.05
6	171	1.753955225	0.05
6	181	1.835818891	0.05
6	191	1.907279328	0.05
6	191	1.989072049	0.05
6	201	2.05063363	0.05
6	211	2.123810671	0.05
6	211	2.18749591	0.05
6	221	2.251167723	0.05
6	231	2.321895885	0.05
6	231	2.395006588	0.05
6	241	2.464429055	0.05
6	251	2.563070089	0.05
6	261	2.651166208	0.05
6	271	2.739942518	0.05
6	281	2.840074637	0.05
6	291	2.976303806	0.05
6	292	3	0.05
6	302	3.0204370462	0.05
6	302	3.029961033	0.05
6	302	3.039414732	0.05
6	302	3.0462116037	0.05
6	302	3.0514183952	0.05
6	302	3.0568433649	0.05
6	302	3.0622820143	0.05
6	302	3.0682666334	0.05
6	302	3.0754062011	0.05
6	302	3.083415495	0.05
6	302	3.0908709453	0.05
6	302	3.0986779893	0.05
6	303	3.1	0.05
6	313	3.1075079116	0.05
6	313	3.1166837477	0.05
6	313	3.1228203929	0.05
6	313	3.1301081614	0.05
6	313	3.1402179337	0.05
6	313	3.1463138506	0.05
6	313	3.1540695492	0.05
6	313	3.1598488487	0.05
6	313	3.1684572675	0.05
6	313	3.1750732273	0.05
6	313	3.1826048862	0.05
6	313	3.1896406105	0.05
6	313	3.1975426157	0.05
6	314	3.2	0.05
6	324	3.2092730088	0.05
6	324	3.2177530704	0.05
6	324	3.2232503361	0.05
6	324	3.2296644381	0.05
6	324	3.2348874578	0.05
6	324	3.2393330345	0.05
6	324	3.2467952954	0.05
6	324	3.2523589084	0.05
6	324	3.2576059318	0.05
6	324	3.2619051101	0.05
6	324	3.2675537761	0.05
6	324	3.2726286614	0.05
6	324	3.2800670441	0.05
6	324	3.2877794413	0.05
6	324	3.2951863377	0.05
6	325	3.3	0.05
6	335	3.3070414205	0.05
6	335	3.3163222917	0.05
6	335	3.3248627443	0.05
6	335	3.3346727726	0.05
6	335	3.3425441976	0.05
6	335	3.3489168291	0.05
6	335	3.3585434824	0.05
6	335	3.374182598	0.05
6	335	3.3864476816	0.05
6	335	3.3920275563	0.05
6	335	3.3996686711	0.05
6	336	3.4	0.05
6	346	3.4087509837	0.05
6	346	3.4185645727	0.05
6	346	3.4255560025	0.05
6	346	3.4328291841	0.05
6	346	3.4398470214	0.05
6	346	3.4471644819	0.05
6	346	3.4553202311	0.05
6	346	3.4647163792	0.05
6	346	3.4727710037	0.05
6	346	3.4831906225	0.05
6	346	3.4909592685	0.05
6	346	3.4991823311	0.05
6	347	3.5	0.05
6	357	3.5061643303	0.05
6	357	3.5153273753	0.05
6	357	3.5244735373	0.05
6	357	3.531817779	0.05
6	357	3.5393027482	0.05
6	357	3.5476445676	0.05
6	357	3.5538601737	0.05
6	357	3.5616112246	0.05
6	357	3.5675392383	0.05
6	357	3.5744603228	0.05
6	357	3.5839772017	0.05
6	357	3.590733817	0.05
6	357	3.5982550522	0.05
6	358	3.6	0.05
6	368	3.6083497408	0.05
6	368	3.6171514082	0.05
6	368	3.6255845523	0.05
6	368	3.6336247775	0.05
6	368	3.6414985088	0.05
6	368	3.6492488006	0.05
6	368	3.6582538587	0.05
6	368	3.6659366643	0.05
6	368	3.6731222908	0.05
6	368	3.6808237685	0.05
6	368	3.6895153457	0.05
6	368	3.6960762252	0.05
6	369	3.7	0.05
6	379	3.7085292406	0.05
6	379	3.7171454273	0.05
6	379	3.727926571	0.05
6	379	3.7395330376	0.05
6	379	3.7478949161	0.05
6	379	3.756869272	0.05
6	379	3.7667423765	0.05
6	379	3.7784600966	0.05
6	379	3.7888556276	0.05
6	379	3.796521971	0.05
6	380	3.8	0.05
6	390	3.809191325	0.05
6	390	3.817951401	0.05
6	390	3.8283395153	0.05
6	390	3.837142554	0.05
6	390	3.8459378136	0.05
6	390	3.8530863943	0.05
6	390	3.8599286721	0.05
6	390	3.8653088274	0.05
6	390	3.8737616442	0.05
6	390	3.8807346837	0.05
6	390	3.8904457425	0.05
6	390	3.8999566614	0.05
6	391	3.9	0.05
6	401	3.9079040997	0.05
6	401	3.9166702763	0.05
6	401	3.9249410031	0.05
6	401	3.9331412004	0.05
6	401	3.9410036622	0.05
6	401	3.9484589131	0.05
6	401	3.9562574326	0.05
6	401	3.9641409598	0.05
6	401	3.9724967677	0.05
6	401	3.9796555378	0.05
6	401	3.9892458813	0.05
6	401	3.9968079201	0.05
6	402	4	0.05
6	412	4.009586077	0.05
6	412	4.017386239	0.05
6	412	4.0260762452	0.05
6	412	4.0319007624	0.05
6	412	4.0402344772	0.05
6	412	4.0471103927	0.05
6	413	4.0553078892	0.05
6	413	4.0614344277	0.05
6	413	4.068238628	0.05
6	413	4.0800996966	0.05
6	413	4.0882801602	0.05
6	413	4.0969212518	0.05
6	414	4.1	0.05
6	424	4.1099209461	0.05
6	424	4.1244359195	0.05
6	424	4.1307996046	0.05
6	424	4.1394888275	0.05
6	424	4.1467656047	0.05
6	424	4.1552184003	0.05
6	424	4.1623741158	0.05
6	424	4.1718416624	0.05
6	424	4.1790042434	0.05
6	424	4.1861069657	0.05
6	424	4.1936139451	0.05
6	424	4.1999733814	0.05
6	425	4.2	0.05
6	435	4.2074531891	0.05
6	435	4.215791983	0.05
6	435	4.2229006476	0.05
6	435	4.2307310955	0.05
6	435	4.2375503308	0.05
6	435	4.2453713246	0.05
6	435	4.2559169762	0.05
6	435	4.2665802041	0.05
6	435	4.2746632351	0.05
6	435	4.2833692978	0.05
6	435	4.2914747921	0.05
6	435	4.2993925898	0.05
6	436	4.3	0.05
6	446	4.306797128	0.05
6	446	4.3175040139	0.05
6	446	4.3244029293	0.05
6	446	4.3297828894	0.05
6	446	4.3383351481	0.05
6	446	4.3480023466	0.05
6	446	4.358298429	0.05
6	446	4.3670816315	0.05
6	446	4.3735372165	0.05
6	446	4.3806810748	0.05
6	446	4.3866291508	0.05
6	446	4.39476731	0.05
6	447	4.4	0.05
6	457	4.4078570132	0.05
6	457	4.416896254	0.05
6	457	4.4272643286	0.05
6	457	4.4358623655	0.05
6	457	4.4453776008	0.05
6	457	4.4511067306	0.05
6	457	4.4588465177	0.05
6	457	4.4664762974	0.05
6	457	4.4749703114	0.05
6	457	4.4839549458	0.05
6	457	4.4941503131	0.05
6	458	4.5	0.05
6	468	4.575892368	0.05
6	478	4.666268957	0.05
6	488	4.7506722	0.05
6	498	4.825795926	0.05
6	508	4.906773051	0.05
6	508	4.994621377	0.05
6	518	5.079333035	0.05
6	528	5.151891232	0.05
6	538	5.2380512	0.05
6	548	5.36212559	0.05
6	558	5.456883732	0.05
6	569	5.5049876935	0.05
6	569	5.5151838412	0.05
6	569	5.5233958586	0.05
6	569	5.5320608103	0.05
6	569	5.5385730971	0.05
6	569	5.5470420889	0.05
6	569	5.5563229698	0.05
6	569	5.563985805	0.05
6	569	5.570854292	0.05
6	569	5.577777882	0.05
6	569	5.5870740211	0.05
6	569	5.5974713063	0.05
6	570	5.6	0.05
6	580	5.672922902	0.05
6	600	5.839555496	0.05
6	610	5.961093466	0.05
6	620	6.055447182	0.05
6	631	6.143644123	0.05
6	641	6.259284372	0.05
6	651	6.375088418	0.05
6	661	6.460439414	0.05
6	671	6.551948667	0.05
6	681	6.642902853	0.05
6	691	6.795907486	0.05
6	711	6.920152394	0.05
6	721	7.080172232	0.05
6	741	7.223267948	0.05
6	751	7.340352225	0.05
6	761	7.438157171	0.05
6	781	7.605516736	0.05
6	781	7.691762481	0.05
6	791	7.785144397	0.05
6	801	7.899263074	0.05
6	811	7.998792866	0.05
6	821	8.092765055	0.05
6	831	8.189529242	0.05
6	841	8.276127813	0.05
6	851	8.368362386	0.05
6	861	8.441708436	0.05
6	871	8.522827279	0.05
6	881	8.617592107	0.05
6	881	8.699867421	0.05
6	891	8.782896593	0.05
6	901	8.899999369	0.05
6	911	8.996750699	0.05
6	921	9.076007037	0.05
6	931	9.168509232	0.05
6	941	9.267060411	0.05
6	951	9.351373192	0.05
6	961	9.443012053	0.05
6	971	9.538507312	0.05
6	981	9.620975275	0.05
6	991	9.712118854	0.05
6	1001	9.809882992	0.05
6	1011	9.906475636	0.05
6	1011	9.997231398	0.05
6	1021	10.083391045	0.05
6	1031	10.197665882	0.05
6	1041	10.272263914	0.05
6	1051	10.363792447	0.05
6	1061	10.462003777	0.05
6	1071	10.553417949	0.05
6	1081	10.684795193	0.05
6	1091	10.783242467	0.05
6	1101	10.88196016	0.05
6	1111	10.968319736	0.05
6	1121	11.064600591	0.05
6	1131	11.150633445	0.05
6	1141	11.266977883	0.05
6	1151	11.388010418	0.05
6	1161	11.479435896	0.05
6	1171	11.571719849	0.05
6	1181	11.662613671	0.05
6	1191	11.752404968	0.05
6	1201	11.880497244	0.05
6	1221	12.01116614	0.05
6	1231	12.121774421	0.05
6	1241	12.204074462	0.05
6	1241	12.2982658	0.05
6	1251	12.390752673	0.05
6	1261	12.47949882	0.05
6	1281	12.609167656	0.05
6	1291	12.706629436	0.05
6	1301	12.81738241	0.05
6	1311	12.913043289	0.05
6	1321	13.055839473	0.05
6	1331	13.188026761	0.05
6	1341	13.285091841	0.05
6	1351	13.370008343	0.05
6	1361	13.484992952	0.05
6	1372	13.578861607	0.05
6	1382	13.678934661	0.05
6	1392	13.77371361	0.05
6	1402	13.89625413	0.05
6	1412	13.978462887	0.05
6	1422	14.066780384	0.05
6	1432	14.157645376	0.05
6	1442	14.253518901	0.05
6	1452	14.371621902	0.05
6	1462	14.471391153	0.05
6	1472	14.591190423	0.05
6	1492	14.72038391	0.05
6	1502	14.84035624	0.05
6	1512	14.952783371	0.05
6	1522	15.07369834	0.05
6	1532	15.17086344	0.05
6	1542	15.264785443	0.05
6	1552	15.350095726	0.05
6	1562	15.470322937	0.05
6	1572	15.59287516	0.05
6	1592	15.711370413	0.05
6	1602	15.851307695	0.05
6	1612	15.974312122	0.05
6	1623	16.042367550778	0.05
6	1633	16.106307182	0.05
6	1643	16.274303416	0.05
6	1663	16.485659394	0.05
6	1683	16.629958393	0.05
6	1693	16.768884726	0.05
6	1703	16.867451436	0.05
6	1713	16.977385672	0.05
6	1723	17.088957052	0.05
6	1733	17.175629916	0.05
6	1743	17.28743159	0.05
6	1753	17.398025437	0.05
6	1773	17.529112331	0.05
6	1783	17.626545144	0.05
6	1793	17.778754441	0.05
6	1803	17.878297016	0.05
6	1823	18.023481492	0.05
6	1833	18.185917486	0.05
6	1853	18.348572339	0.05
6	1874	18.525619188	0.05
6	1884	18.691019724	0.05
6	1904	18.864780586	0.05
6	1924	19.037562123	0.05
6	1934	19.177883074	0.05
6	1955	19.321210307	0.05
6	1965	19.43925465	0.05
6	1975	19.553341272	0.05
6	1985	19.664673358	0.05
6	1995	19.758698045	0.05
6	2005	19.855167443	0.05
6	2015	19.986143709	0.05
6	2035	20.112358307	0.05
6	2045	20.242375808	0.05
6	2055	20.361830206	0.05
6	2065	20.460045147	0.05
6	2075	20.56003255	0.05
6	2095	20.726184114	0.05
6	2105	20.893750834	0.05
6	2125	21.015649568	0.05
6	2135	21.146040608	0.05
6	2145	21.258443148	0.05
6	2155	21.34764229	0.05
6	2165	21.465891185	0.05
6	2175	21.586495846	0.05
6	2185	21.686134789	0.05
6	2195	21.779034176	0.05
6	2205	21.899526369	0.05
6	2225	22.014411606	0.05
6	2225	22.095528679	0.05
6	2245	22.223426994	0.05
6	2255	22.337981358	0.05
6	2265	22.453374208	0.05
6	2275	22.53883161	0.05
6	2285	22.632700525	0.05
6	2295	22.724889541	0.05
6	2305	22.818280793	0.05
6	2315	22.940445543	0.05
6	2325	23.068143553	0.05
6	2335	23.187547339	0.05
6	2355	23.312063982	0.05
6	2365	23.42550412	0.05
6	2375	23.54240028	0.05
6	2385	23.667237888	0.05
6	2405	23.830950559	0.05
6	2415	23.918551177	0.05
6	2426	24.031189356	0.05
6	2436	24.129713996	0.05
6	2446	24.263433496	0.05
6	2457	24.362361123	0.05
6	2477	24.505222739	0.05
6	2487	24.621286983	0.05
6	2497	24.720338861	0.05
6	2507	24.813451816	0.05
6	2517	24.907295146	0.05
6	2527	25.046698467	0.05
6	2537	25.195023864	0.05
6	2557	25.370069663	0.05
6	2577	25.53532357	0.05
6	2588	25.695221113	0.05
6	2608	25.866544578	0.05
6	2618	25.99706004	0.05
6	2638	26.143475178	0.05
6	2648	26.269918411	0.05
6	2659	26.391775417	0.05
6	2679	26.514264123	0.05
6	2689	26.635462708	0.05
6	2699	26.76234481	0.05
6	2709	26.879343897	0.05
6	2729	27.007146585	0.05
6	2739	27.133399547	0.05
6	2749	27.262235951	0.05
6	2759	27.371031735	0.05
6	2769	27.490563078	0.05
6	2789	27.614324828	0.05
6	2799	27.73675246	0.05
6	2809	27.860444999	0.05
6	2819	27.994265097	0.05
6	2839	28.121355829	0.05
6	2849	28.239999212	0.05
6	2859	28.334853199	0.05
6	2869	28.457547339	0.05
6	2879	28.59146898	0.05
6	2899	28.75887712	0.05
6	2919	28.942497464	0.05
6	2929	29.098406126	0.05
6	2949	29.263750241	0.05
6	2969	29.413427306	0.05
6	2979	29.531551082	0.05
6	2989	29.620613086	0.05
6	2999	29.709326933	0.05
6	3009	29.8077056	0.05
6	3019	29.943037287	0.05
6	3029	30.033604971	0.05
6	3039	30.146755901	0.05
6	3049	30.242890834	0.05
6	3059	30.357864786	0.05
6	3069	30.476802176	0.05
6	3089	30.602634111	0.05
6	3099	30.716366319	0.05
6	3109	30.837063711	0.05
6	3119	30.963714527	0.05
6	3129	31.056487872	0.05
6	3139	31.172867098	0.05
6	3149	31.299515167	0.05
6	3169	31.418774571	0.05
6	3179	31.51779012	0.05
6	3189	31.615082932	0.05
6	3199	31.712792248	0.05
6	3209	31.804891526	0.05
6	3220	31.93880111	0.05
6	3232	32.083944831	0.05
6	3249	32.217539255	0.05
6	3260	32.35423953	0.05
6	3272	32.493013721	0.05
6	3289	32.612748717	0.05
6	3300	32.73864047	0.05
6	3311	32.87037463	0.05
6	3321	32.968982287	0.05
6	3339	33.102661028	0.05
6	3350	33.237892441	0.05
6	3361	33.372423414	0.05
6	3379	33.508431344	0.05
6	3391	33.636845862	0.05
6	3402	33.769673876	0.05
6	3413	33.896386864	0.05
6	3423	33.99569248	0.05
6	3440	34.117739126	0.05
6	3451	34.245419294	0.05
6	3462	34.378485602	0.05
6	3480	34.50932938	0.05
6	3491	34.64387516	0.05
6	3503	34.786371588	0.05
6	3520	34.907175059	0.05
6	3531	35.044982748	0.05
6	3542	35.163031282	0.05
6	3552	35.277774876	0.05
6	3562	35.373879173	0.05
6	3573	35.492709996	0.05
6	3590	35.619904839	0.05
6	3602	35.767060557	0.05
6	3613	35.891865407	0.05
6	3623	35.988267085	0.05
6	3633	36.086522058	0.05
6	3660	36.304791955	0.05
6	3680	36.50774725	0.05
6	3692	36.673746133	0.05
6	3710	36.821919871	0.05
6	3721	36.942059071	0.05
6	3741	37.13646116	0.05
6	3762	37.336077925	0.05
6	3781	37.512803132	0.05
6	3793	37.657535865	0.05
6	3803	37.776375861	0.05
6	3821	37.902841785	0.05
6	3831	38.019358748	0.05
6	3841	38.111783644	0.05
6	3851	38.205678969	0.05
6	3871	38.412631124	0.05
6	3893	38.666250574	0.05
6	3921	38.908069725	0.05
6	3934	39.084042448	0.05
6	3961	39.318459533	0.05
6	3981	39.51870999	0.05
6	3994	39.674256079	0.05
6	4012	39.838000618	0.05
6	4042	40.137139589	0.05
6	4058	40.3	0.05
6	4076	40.492793238	0.05
7	0	0	0.004
7	1623	16.042367550778	0
8	0	0	0.05
8	0	0.1	0.05
8	10	0.103240267	0.05
8	10	0.157755902	0.05
8	20	0.217890373	0.05
8	20	0.285045537	0.05
8	30	0.343419728	0.05
8	40	0.419274093	0.05
8	41	0.48538859	0.05
8	51	0.561336552	0.05
8	61	0.629822621	0.05
8	71	0.715743898	0.05
8	81	0.867675319	0.05
8	91	0.951774976	0.05
8	101	1.041873066	0.05
8	111	1.135548601	0.05
8	131	1.317741504	0.05
8	141	1.414481464	0.05
8	151	1.505968187	0.05
8	151	1.574696536	0.05
8	161	1.656302937	0.05
8	171	1.753955225	0.05
8	181	1.835818891	0.05
8	191	1.907279328	0.05
8	191	1.989072049	0.05
8	201	2.05063363	0.05
8	211	2.123810671	0.05
8	211	2.18749591	0.05
8	221	2.251167723	0.05
8	231	2.321895885	0.05
8	231	2.395006588	0.05
8	241	2.464429055	0.05
8	251	2.563070089	0.05
8	261	2.651166208	0.05
8	271	2.739942518	0.05
8	281	2.840074637	0.05
8	291	2.976303806	0.05
8	292	3	0.05
8	302	3.0204370462	0.05
8	302	3.029961033	0.05
8	302	3.039414732	0.05
8	302	3.0462116037	0.05
8	302	3.0514183952	0.05
8	302	3.0568433649	0.05
8	302	3.0622820143	0.05
8	302	3.0682666334	0.05
8	302	3.0754062011	0.05
8	302	3.083415495	0.05
8	302	3.0908709453	0.05
8	302	3.0986779893	0.05
8	303	3.1	0.05
8	313	3.1075079116	0.05
8	313	3.1166837477	0.05
8	313	3.1228203929	0.05
8	313	3.1301081614	0.05
8	313	3.1402179337	0.05
8	313	3.1463138506	0.05
8	313	3.1540695492	0.05
8	313	3.1598488487	0.05
8	313	3.1684572675	0.05
8	313	3.1750732273	0.05
8	313	3.1826048862	0.05
8	313	3.1896406105	0.05
8	313	3.1975426157	0.05
8	314	3.2	0.05
8	324	3.2092730088	0.05
8	324	3.2177530704	0.05
8	324	3.2232503361	0.05
8	324	3.2296644381	0.05
8	324	3.2348874578	0.05
8	324	3.2393330345	0.05
8	324	3.2467952954	0.05
8	324	3.2523589084	0.05
8	324	3.2576059318	0.05
8	324	3.2619051101	0.05
8	324	3.2675537761	0.05
8	324	3.2726286614	0.05
8	324	3.2800670441	0.05
8	324	3.2877794413	0.05
8	324	3.2951863377	0.05
8	325	3.3	0.05
8	335	3.3070414205	0.05
8	335	3.3163222917	0.05
8	335	3.3248627443	0.05
8	335	3.3346727726	0.05
8	335	3.3425441976	0.05
8	335	3.3489168291	0.05
8	335	3.3585434824	0.05
8	335	3.374182598	0.05
8	335	3.3864476816	0.05
8	335	3.3920275563	0.05
8	335	3.3996686711	0.05
8	336	3.4	0.05
8	346	3.4087509837	0.05
8	346	3.4185645727	0.05
8	346	3.4255560025	0.05
8	346	3.4328291841	0.05
8	346	3.4398470214	0.05
8	346	3.4471644819	0.05
8	346	3.4553202311	0.05
8	346	3.4647163792	0.05
8	346	3.4727710037	0.05
8	346	3.4831906225	0.05
8	346	3.4909592685	0.05
8	346	3.4991823311	0.05
8	347	3.5	0.05
8	357	3.5061643303	0.05
8	357	3.5153273753	0.05
8	357	3.5244735373	0.05
8	357	3.531817779	0.05
8	357	3.5393027482	0.05
8	357	3.5476445676	0.05
8	357	3.5538601737	0.05
8	357	3.5616112246	0.05
8	357	3.5675392383	0.05
8	357	3.5744603228	0.05
8	357	3.5839772017	0.05
8	357	3.590733817	0.05
8	357	3.5982550522	0.05
8	358	3.6	0.05
8	368	3.6083497408	0.05
8	368	3.6171514082	0.05
8	368	3.6255845523	0.05
8	368	3.6336247775	0.05
8	368	3.6414985088	0.05
8	368	3.6492488006	0.05
8	368	3.6582538587	0.05
8	368	3.6659366643	0.05
8	368	3.6731222908	0.05
8	368	3.6808237685	0.05
8	368	3.6895153457	0.05
8	368	3.6960762252	0.05
8	369	3.7	0.05
8	379	3.7085292406	0.05
8	379	3.7171454273	0.05
8	379	3.727926571	0.05
8	379	3.7395330376	0.05
8	379	3.7478949161	0.05
8	379	3.756869272	0.05
8	379	3.7667423765	0.05
8	379	3.7784600966	0.05
8	379	3.7888556276	0.05
8	379	3.796521971	0.05
8	380	3.8	0.05
8	390	3.809191325	0.05
8	390	3.817951401	0.05
8	390	3.8283395153	0.05
8	390	3.837142554	0.05
8	390	3.8459378136	0.05
8	390	3.8530863943	0.05
8	390	3.8599286721	0.05
8	390	3.8653088274	0.05
8	390	3.8737616442	0.05
8	390	3.8807346837	0.05
8	390	3.8904457425	0.05
8	390	3.8999566614	0.05
8	391	3.9	0.05
8	401	3.9079040997	0.05
8	401	3.9166702763	0.05
8	401	3.9249410031	0.05
8	401	3.9331412004	0.05
8	401	3.9410036622	0.05
8	401	3.9484589131	0.05
8	401	3.9562574326	0.05
8	401	3.9641409598	0.05
8	401	3.9724967677	0.05
8	401	3.9796555378	0.05
8	401	3.9892458813	0.05
8	401	3.9968079201	0.05
8	402	4	0.05
8	412	4.009586077	0.05
8	412	4.017386239	0.05
8	412	4.0260762452	0.05
8	412	4.0319007624	0.05
8	412	4.0402344772	0.05
8	412	4.0471103927	0.05
8	413	4.0553078892	0.05
8	413	4.0614344277	0.05
8	413	4.068238628	0.05
8	413	4.0800996966	0.05
8	413	4.0882801602	0.05
8	413	4.0969212518	0.05
8	414	4.1	0.05
8	424	4.1099209461	0.05
8	424	4.1244359195	0.05
8	424	4.1307996046	0.05
8	424	4.1394888275	0.05
8	424	4.1467656047	0.05
8	424	4.1552184003	0.05
8	424	4.1623741158	0.05
8	424	4.1718416624	0.05
8	424	4.1790042434	0.05
8	424	4.1861069657	0.05
8	424	4.1936139451	0.05
8	424	4.1999733814	0.05
8	425	4.2	0.05
8	435	4.2074531891	0.05
8	435	4.215791983	0.05
8	435	4.2229006476	0.05
8	435	4.2307310955	0.05
8	435	4.2375503308	0.05
8	435	4.2453713246	0.05
8	435	4.2559169762	0.05
8	435	4.2665802041	0.05
8	435	4.2746632351	0.05
8	435	4.2833692978	0.05
8	435	4.2914747921	0.05
8	435	4.2993925898	0.05
8	436	4.3	0.05
8	446	4.306797128	0.05
8	446	4.3175040139	0.05
8	446	4.3244029293	0.05
8	446	4.3297828894	0.05
8	446	4.3383351481	0.05
8	446	4.3480023466	0.05
8	446	4.358298429	0.05
8	446	4.3670816315	0.05
8	446	4.3735372165	0.05
8	446	4.3806810748	0.05
8	446	4.3866291508	0.05
8	446	4.39476731	0.05
8	447	4.4	0.05
8	457	4.4078570132	0.05
8	457	4.416896254	0.05
8	457	4.4272643286	0.05
8	457	4.4358623655	0.05
8	457	4.4453776008	0.05
8	457	4.4511067306	0.05
8	457	4.4588465177	0.05
8	457	4.4664762974	0.05
8	457	4.4749703114	0.05
8	457	4.4839549458	0.05
8	457	4.4941503131	0.05
8	458	4.5	0.05
8	468	4.575892368	0.05
8	478	4.666268957	0.05
8	488	4.7506722	0.05
8	498	4.825795926	0.05
8	508	4.906773051	0.05
8	508	4.994621377	0.05
8	518	5.079333035	0.05
8	528	5.151891232	0.05
8	538	5.2380512	0.05
8	548	5.36212559	0.05
8	558	5.456883732	0.05
8	569	5.5049876935	0.05
8	569	5.5151838412	0.05
8	569	5.5233958586	0.05
8	569	5.5320608103	0.05
8	569	5.5385730971	0.05
8	569	5.5470420889	0.05
8	569	5.5563229698	0.05
8	569	5.563985805	0.05
8	569	5.570854292	0.05
8	569	5.577777882	0.05
8	569	5.5870740211	0.05
8	569	5.5974713063	0.05
8	570	5.6	0.05
8	580	5.672922902	0.05
8	600	5.839555496	0.05
8	610	5.961093466	0.05
8	620	6.055447182	0.05
8	631	6.143644123	0.05
8	641	6.259284372	0.05
8	651	6.375088418	0.05
8	661	6.460439414	0.05
8	671	6.551948667	0.05
8	681	6.642902853	0.05
8	691	6.795907486	0.05
8	711	6.920152394	0.05
8	721	7.080172232	0.05
8	741	7.223267948	0.05
8	751	7.340352225	0.05
8	761	7.438157171	0.05
8	781	7.605516736	0.05
8	781	7.691762481	0.05
8	791	7.785144397	0.05
8	801	7.899263074	0.05
8	811	7.998792866	0.05
8	821	8.092765055	0.05
8	831	8.189529242	0.05
8	841	8.276127813	0.05
8	851	8.368362386	0.05
8	861	8.441708436	0.05
8	871	8.522827279	0.05
8	881	8.617592107	0.05
8	881	8.699867421	0.05
8	891	8.782896593	0.05
8	901	8.899999369	0.05
8	911	8.996750699	0.05
8	921	9.076007037	0.05
8	931	9.168509232	0.05
8	941	9.267060411	0.05
8	951	9.351373192	0.05
8	961	9.443012053	0.05
8	971	9.538507312	0.05
8	981	9.620975275	0.05
8	991	9.712118854	0.05
8	1001	9.809882992	0.05
8	1011	9.906475636	0.05
8	1011	9.997231398	0.05
8	1021	10.083391045	0.05
8	1031	10.197665882	0.05
8	1041	10.272263914	0.05
8	1051	10.363792447	0.05
8	1061	10.462003777	0.05
8	1071	10.553417949	0.05
8	1081	10.684795193	0.05
8	1091	10.783242467	0.05
8	1101	10.88196016	0.05
8	1111	10.968319736	0.05
8	1121	11.064600591	0.05
8	1131	11.150633445	0.05
8	1141	11.266977883	0.05
8	1151	11.388010418	0.05
8	1161	11.479435896	0.05
8	1171	11.571719849	0.05
8	1181	11.662613671	0.05
8	1191	11.752404968	0.05
8	1201	11.880497244	0.05
8	1221	12.01116614	0.05
8	1231	12.121774421	0.05
8	1241	12.204074462	0.05
8	1241	12.2982658	0.05
8	1251	12.390752673	0.05
8	1261	12.47949882	0.05
8	1281	12.609167656	0.05
8	1291	12.706629436	0.05
8	1301	12.81738241	0.05
8	1311	12.913043289	0.05
8	1321	13.055839473	0.05
8	1331	13.188026761	0.05
8	1341	13.285091841	0.05
8	1351	13.370008343	0.05
8	1361	13.484992952	0.05
8	1372	13.578861607	0.05
8	1382	13.678934661	0.05
8	1392	13.77371361	0.05
8	1402	13.89625413	0.05
8	1412	13.978462887	0.05
8	1422	14.066780384	0.05
8	1432	14.157645376	0.05
8	1442	14.253518901	0.05
8	1452	14.371621902	0.05
8	1462	14.471391153	0.05
8	1472	14.591190423	0.05
8	1492	14.72038391	0.05
8	1502	14.84035624	0.05
8	1512	14.952783371	0.05
8	1522	15.07369834	0.05
8	1532	15.17086344	0.05
8	1542	15.264785443	0.05
8	1552	15.350095726	0.05
8	1562	15.470322937	0.05
8	1572	15.59287516	0.05
8	1592	15.711370413	0.05
8	1602	15.851307695	0.05
8	1612	15.974312122	0.05
8	1633	16.106307182	0.05
8	1643	16.274303416	0.05
8	1663	16.485659394	0.05
8	1683	16.629958393	0.05
8	1693	16.768884726	0.05
8	1703	16.867451436	0.05
8	1713	16.977385672	0.05
8	1723	17.088957052	0.05
8	1733	17.175629916	0.05
8	1743	17.28743159	0.05
8	1753	17.398025437	0.05
8	1773	17.529112331	0.05
8	1783	17.626545144	0.05
8	1793	17.778754441	0.05
8	1803	17.878297016	0.05
8	1823	18.023481492	0.05
8	1833	18.185917486	0.05
8	1853	18.348572339	0.05
8	1874	18.525619188	0.05
8	1884	18.691019724	0.05
8	1904	18.864780586	0.05
8	1924	19.037562123	0.05
8	1934	19.177883074	0.05
8	1955	19.321210307	0.05
8	1965	19.43925465	0.05
8	1975	19.553341272	0.05
8	1985	19.664673358	0.05
8	1995	19.758698045	0.05
8	2005	19.855167443	0.05
8	2015	19.986143709	0.05
8	2035	20.112358307	0.05
8	2045	20.242375808	0.05
8	2055	20.361830206	0.05
8	2065	20.460045147	0.05
8	2075	20.56003255	0.05
8	2095	20.726184114	0.05
8	2105	20.893750834	0.05
8	2125	21.015649568	0.05
8	2135	21.146040608	0.05
8	2145	21.258443148	0.05
8	2155	21.34764229	0.05
8	2165	21.465891185	0.05
8	2175	21.586495846	0.05
8	2185	21.686134789	0.05
8	2195	21.779034176	0.05
8	2205	21.899526369	0.05
8	2225	22.014411606	0.05
8	2225	22.095528679	0.05
8	2245	22.223426994	0.05
8	2255	22.337981358	0.05
8	2265	22.453374208	0.05
8	2275	22.53883161	0.05
8	2285	22.632700525	0.05
8	2295	22.724889541	0.05
8	2305	22.818280793	0.05
8	2315	22.940445543	0.05
8	2325	23.068143553	0.05
8	2335	23.187547339	0.05
8	2355	23.312063982	0.05
8	2365	23.42550412	0.05
8	2375	23.54240028	0.05
8	2385	23.667237888	0.05
8	2405	23.830950559	0.05
8	2415	23.918551177	0.05
8	2426	24.031189356	0.05
8	2436	24.129713996	0.05
8	2446	24.263433496	0.05
8	2457	24.362361123	0.05
8	2477	24.505222739	0.05
8	2487	24.621286983	0.05
8	2497	24.720338861	0.05
8	2507	24.813451816	0.05
8	2517	24.907295146	0.05
8	2527	25.046698467	0.05
8	2537	25.195023864	0.05
8	2557	25.370069663	0.05
8	2577	25.53532357	0.05
8	2588	25.695221113	0.05
8	2608	25.866544578	0.05
8	2618	25.99706004	0.05
8	2638	26.143475178	0.05
8	2648	26.269918411	0.05
8	2659	26.391775417	0.05
8	2679	26.514264123	0.05
8	2689	26.635462708	0.05
8	2699	26.76234481	0.05
8	2709	26.879343897	0.05
8	2729	27.007146585	0.05
8	2739	27.133399547	0.05
8	2749	27.262235951	0.05
8	2759	27.371031735	0.05
8	2769	27.490563078	0.05
8	2789	27.614324828	0.05
8	2799	27.73675246	0.05
8	2809	27.860444999	0.05
8	2819	27.994265097	0.05
8	2839	28.121355829	0.05
8	2849	28.239999212	0.05
8	2859	28.334853199	0.05
8	2869	28.457547339	0.05
8	2879	28.59146898	0.05
8	2899	28.75887712	0.05
8	2919	28.942497464	0.05
8	2929	29.098406126	0.05
8	2949	29.263750241	0.05
8	2969	29.413427306	0.05
8	2979	29.531551082	0.05
8	2989	29.620613086	0.05
8	2999	29.709326933	0.05
8	3009	29.8077056	0.05
8	3019	29.943037287	0.05
8	3029	30.033604971	0.05
8	3039	30.146755901	0.05
8	3049	30.242890834	0.05
8	3059	30.357864786	0.05
8	3069	30.476802176	0.05
8	3089	30.602634111	0.05
8	3099	30.716366319	0.05
8	3109	30.837063711	0.05
8	3119	30.963714527	0.05
8	3129	31.056487872	0.05
8	3139	31.172867098	0.05
8	3149	31.299515167	0.05
8	3169	31.418774571	0.05
8	3179	31.51779012	0.05
8	3189	31.615082932	0.05
8	3199	31.712792248	0.05
8	3209	31.804891526	0.05
8	3220	31.93880111	0.05
8	3232	32.083944831	0.05
8	3249	32.217539255	0.05
8	3260	32.35423953	0.05
8	3272	32.493013721	0.05
8	3289	32.612748717	0.05
8	3300	32.73864047	0.05
8	3311	32.87037463	0.05
8	3321	32.968982287	0.05
8	3339	33.102661028	0.05
8	3350	33.237892441	0.05
8	3361	33.372423414	0.05
8	3379	33.508431344	0.05
8	3391	33.636845862	0.05
8	3402	33.769673876	0.05
8	3413	33.896386864	0.05
8	3423	33.99569248	0.05
8	3440	34.117739126	0.05
8	3451	34.245419294	0.05
8	3462	34.378485602	0.05
8	3480	34.50932938	0.05
8	3491	34.64387516	0.05
8	3503	34.786371588	0.05
8	3520	34.907175059	0.05
8	3531	35.044982748	0.05
8	3542	35.163031282	0.05
8	3552	35.277774876	0.05
8	3562	35.373879173	0.05
8	3573	35.492709996	0.05
8	3590	35.619904839	0.05
8	3602	35.767060557	0.05
8	3613	35.891865407	0.05
8	3623	35.988267085	0.05
8	3633	36.086522058	0.05
8	3660	36.304791955	0.05
8	3680	36.50774725	0.05
8	3692	36.673746133	0.05
8	3710	36.821919871	0.05
8	3721	36.942059071	0.05
8	3741	37.13646116	0.05
8	3751	37.206370643792	0.05
8	3762	37.336077925	0.05
8	3781	37.512803132	0.05
8	3793	37.657535865	0.05
8	3803	37.776375861	0.05
8	3821	37.902841785	0.05
8	3831	38.019358748	0.05
8	3841	38.111783644	0.05
8	3851	38.205678969	0.05
8	3871	38.412631124	0.05
8	3893	38.666250574	0.05
8	3921	38.908069725	0.05
8	3934	39.084042448	0.05
8	3961	39.318459533	0.05
8	3981	39.51870999	0.05
8	3994	39.674256079	0.05
8	4012	39.838000618	0.05
8	4042	40.137139589	0.05
8	4058	40.3	0.05
8	4076	40.492793238	0.05
9	0	0	0.004
9	3751	37.206370643792	0
10	0	0	0.05
10	0	0.1	0.05
10	10	0.103240267	0.05
10	10	0.157755902	0.05
10	20	0.217890373	0.05
10	20	0.285045537	0.05
10	30	0.343419728	0.05
10	40	0.419274093	0.05
10	41	0.48538859	0.05
10	51	0.561336552	0.05
10	61	0.629822621	0.05
10	71	0.715743898	0.05
10	81	0.867675319	0.05
10	91	0.951774976	0.05
10	101	1.041873066	0.05
10	111	1.135548601	0.05
10	131	1.317741504	0.05
10	141	1.414481464	0.05
10	151	1.505968187	0.05
10	151	1.574696536	0.05
10	161	1.656302937	0.05
10	171	1.753955225	0.05
10	181	1.835818891	0.05
10	191	1.907279328	0.05
10	191	1.989072049	0.05
10	201	2.05063363	0.05
10	211	2.123810671	0.05
10	211	2.18749591	0.05
10	221	2.251167723	0.05
10	231	2.321895885	0.05
10	231	2.395006588	0.05
10	241	2.464429055	0.05
10	251	2.563070089	0.05
10	261	2.651166208	0.05
10	271	2.739942518	0.05
10	281	2.840074637	0.05
10	291	2.976303806	0.05
10	292	3	0.05
10	302	3.0204370462	0.05
10	302	3.029961033	0.05
10	302	3.039414732	0.05
10	302	3.0462116037	0.05
10	302	3.0514183952	0.05
10	302	3.0568433649	0.05
10	302	3.0622820143	0.05
10	302	3.0682666334	0.05
10	302	3.0754062011	0.05
10	302	3.083415495	0.05
10	302	3.0908709453	0.05
10	302	3.0986779893	0.05
10	303	3.1	0.05
10	313	3.1075079116	0.05
10	313	3.1166837477	0.05
10	313	3.1228203929	0.05
10	313	3.1301081614	0.05
10	313	3.1402179337	0.05
10	313	3.1463138506	0.05
10	313	3.1540695492	0.05
10	313	3.1598488487	0.05
10	313	3.1684572675	0.05
10	313	3.1750732273	0.05
10	313	3.1826048862	0.05
10	313	3.1896406105	0.05
10	313	3.1975426157	0.05
10	314	3.2	0.05
10	324	3.2092730088	0.05
10	324	3.2177530704	0.05
10	324	3.2232503361	0.05
10	324	3.2296644381	0.05
10	324	3.2348874578	0.05
10	324	3.2393330345	0.05
10	324	3.2467952954	0.05
10	324	3.2523589084	0.05
10	324	3.2576059318	0.05
10	324	3.2619051101	0.05
10	324	3.2675537761	0.05
10	324	3.2726286614	0.05
10	324	3.2800670441	0.05
10	324	3.2877794413	0.05
10	324	3.2951863377	0.05
10	325	3.3	0.05
10	335	3.3070414205	0.05
10	335	3.3163222917	0.05
10	335	3.3248627443	0.05
10	335	3.3346727726	0.05
10	335	3.3425441976	0.05
10	335	3.3489168291	0.05
10	335	3.3585434824	0.05
10	335	3.374182598	0.05
10	335	3.3864476816	0.05
10	335	3.3920275563	0.05
10	335	3.3996686711	0.05
10	336	3.4	0.05
10	346	3.4087509837	0.05
10	346	3.4185645727	0.05
10	346	3.4255560025	0.05
10	346	3.4328291841	0.05
10	346	3.4398470214	0.05
10	346	3.4471644819	0.05
10	346	3.4553202311	0.05
10	346	3.4647163792	0.05
10	346	3.4727710037	0.05
10	346	3.4831906225	0.05
10	346	3.4909592685	0.05
10	346	3.4991823311	0.05
10	347	3.5	0.05
10	357	3.5061643303	0.05
10	357	3.5153273753	0.05
10	357	3.5244735373	0.05
10	357	3.531817779	0.05
10	357	3.5393027482	0.05
10	357	3.5476445676	0.05
10	357	3.5538601737	0.05
10	357	3.5616112246	0.05
10	357	3.5675392383	0.05
10	357	3.5744603228	0.05
10	357	3.5839772017	0.05
10	357	3.590733817	0.05
10	357	3.5982550522	0.05
10	358	3.6	0.05
10	368	3.6083497408	0.05
10	368	3.6171514082	0.05
10	368	3.6255845523	0.05
10	368	3.6336247775	0.05
10	368	3.6414985088	0.05
10	368	3.6492488006	0.05
10	368	3.6582538587	0.05
10	368	3.6659366643	0.05
10	368	3.6731222908	0.05
10	368	3.6808237685	0.05
10	368	3.6895153457	0.05
10	368	3.6960762252	0.05
10	369	3.7	0.05
10	379	3.7085292406	0.05
10	379	3.7171454273	0.05
10	379	3.727926571	0.05
10	379	3.7395330376	0.05
10	379	3.7478949161	0.05
10	379	3.756869272	0.05
10	379	3.7667423765	0.05
10	379	3.7784600966	0.05
10	379	3.7888556276	0.05
10	379	3.796521971	0.05
10	380	3.8	0.05
10	390	3.809191325	0.05
10	390	3.817951401	0.05
10	390	3.8283395153	0.05
10	390	3.837142554	0.05
10	390	3.8459378136	0.05
10	390	3.8530863943	0.05
10	390	3.8599286721	0.05
10	390	3.8653088274	0.05
10	390	3.8737616442	0.05
10	390	3.8807346837	0.05
10	390	3.8904457425	0.05
10	390	3.8999566614	0.05
10	391	3.9	0.05
10	401	3.9079040997	0.05
10	401	3.9166702763	0.05
10	401	3.9249410031	0.05
10	401	3.9331412004	0.05
10	401	3.9410036622	0.05
10	401	3.9484589131	0.05
10	401	3.9562574326	0.05
10	401	3.9641409598	0.05
10	401	3.9724967677	0.05
10	401	3.9796555378	0.05
10	401	3.9892458813	0.05
10	401	3.9968079201	0.05
10	402	4	0.05
10	412	4.009586077	0.05
10	412	4.017386239	0.05
10	412	4.0260762452	0.05
10	412	4.0319007624	0.05
10	412	4.0402344772	0.05
10	412	4.0471103927	0.05
10	413	4.0553078892	0.05
10	413	4.0614344277	0.05
10	413	4.068238628	0.05
10	413	4.0800996966	0.05
10	413	4.0882801602	0.05
10	413	4.0969212518	0.05
10	414	4.1	0.05
10	424	4.1099209461	0.05
10	424	4.1244359195	0.05
10	424	4.1307996046	0.05
10	424	4.1394888275	0.05
10	424	4.1467656047	0.05
10	424	4.1552184003	0.05
10	424	4.1623741158	0.05
10	424	4.1718416624	0.05
10	424	4.1790042434	0.05
10	424	4.1861069657	0.05
10	424	4.1936139451	0.05
10	424	4.1999733814	0.05
10	425	4.2	0.05
10	435	4.2074531891	0.05
10	435	4.215791983	0.05
10	435	4.2229006476	0.05
10	435	4.2307310955	0.05
10	435	4.2375503308	0.05
10	435	4.2453713246	0.05
10	435	4.2559169762	0.05
10	435	4.2665802041	0.05
10	435	4.2746632351	0.05
10	435	4.2833692978	0.05
10	435	4.2914747921	0.05
10	435	4.2993925898	0.05
10	436	4.3	0.05
10	446	4.306797128	0.05
10	446	4.3175040139	0.05
10	446	4.3244029293	0.05
10	446	4.3297828894	0.05
10	446	4.3383351481	0.05
10	446	4.3480023466	0.05
10	446	4.358298429	0.05
10	446	4.3670816315	0.05
10	446	4.3735372165	0.05
10	446	4.3806810748	0.05
10	446	4.3866291508	0.05
10	446	4.39476731	0.05
10	447	4.4	0.05
10	457	4.4078570132	0.05
10	457	4.416896254	0.05
10	457	4.4272643286	0.05
10	457	4.4358623655	0.05
10	457	4.4453776008	0.05
10	457	4.4511067306	0.05
10	457	4.4588465177	0.05
10	457	4.4664762974	0.05
10	457	4.4749703114	0.05
10	457	4.4839549458	0.05
10	457	4.4941503131	0.05
10	458	4.5	0.05
10	468	4.575892368	0.05
10	478	4.666268957	0.05
10	488	4.7506722	0.05
[...]
16	1171	11.571719849	0.05
16	1181	11.662613671	0.05
16	1191	11.752404968	0.05
16	1201	11.880497244	0.05
16	1221	12.01116614	0.05
16	1231	12.121774421	0.05
16	1241	12.204074462	0.05
16	1241	12.2982658	0.05
16	1251	12.390752673	0.05
16	1261	12.47949882	0.05
16	1281	12.609167656	0.05
16	1291	12.706629436	0.05
16	1301	12.81738241	0.05
16	1311	12.913043289	0.05
16	1321	13.055839473	0.05
16	1331	13.188026761	0.05
16	1341	13.285091841	0.05
16	1351	13.370008343	0.05
16	1361	13.484992952	0.05
16	1372	13.578861607	0.05
16	1382	13.678934661	0.05
16	1392	13.77371361	0.05
16	1402	13.89625413	0.05
16	1412	13.978462887	0.05
16	1422	14.066780384	0.05
16	1432	14.157645376	0.05
16	1442	14.253518901	0.05
16	1452	14.371621902	0.05
16	1462	14.471391153	0.05
16	1472	14.591190423	0.05
16	1492	14.72038391	0.05
16	1502	14.84035624	0.05
16	1512	14.952783371	0.05
16	1522	15.07369834	0.05
16	1532	15.17086344	0.05
16	1542	15.264785443	0.05
16	1552	15.350095726	0.05
16	1562	15.470322937	0.05
16	1572	15.59287516	0.05
16	1592	15.711370413	0.05
16	1602	15.851307695	0.05
16	1612	15.974312122	0.05
16	1633	16.106307182	0.05
16	1643	16.274303416	0.05
16	1663	16.485659394	0.05
16	1683	16.629958393	0.05
16	1693	16.768884726	0.05
16	1703	16.867451436	0.05
16	1713	16.977385672	0.05
16	1723	17.088957052	0.05
16	1733	17.175629916	0.05
16	1743	17.28743159	0.05
16	1753	17.398025437	0.05
16	1773	17.529112331	0.05
16	1783	17.626545144	0.05
16	1793	17.778754441	0.05
16	1803	17.878297016	0.05
16	1823	18.023481492	0.05
16	1833	18.185917486	0.05
16	1853	18.348572339	0.05
16	1874	18.525619188	0.05
16	1884	18.691019724	0.05
16	1904	18.864780586	0.05
16	1924	19.037562123	0.05
16	1934	19.177883074	0.05
16	1955	19.321210307	0.05
16	1965	19.43925465	0.05
16	1975	19.553341272	0.05
16	1985	19.664673358	0.05
16	1995	19.758698045	0.05
16	2005	19.855167443	0.05
16	2015	19.986143709	0.05
16	2035	20.112358307	0.05
16	2045	20.242375808	0.05
16	2055	20.361830206	0.05
16	2065	20.460045147	0.05
16	2075	20.56003255	0.05
16	2095	20.726184114	0.05
16	2105	20.893750834	0.05
16	2125	21.015649568	0.05
16	2135	21.146040608	0.05
16	2145	21.258443148	0.05
16	2155	21.34764229	0.05
16	2165	21.465891185	0.05
16	2175	21.586495846	0.05
16	2185	21.686134789	0.05
16	2195	21.779034176	0.05
16	2205	21.899526369	0.05
16	2225	22.014411606	0.05
16	2225	22.095528679	0.05
16	2245	22.223426994	0.05
16	2255	22.337981358	0.05
16	2265	22.453374208	0.05
16	2275	22.53883161	0.05
16	2285	22.632700525	0.05
16	2295	22.724889541	0.05
16	2305	22.818280793	0.05
16	2315	22.940445543	0.05
16	2325	23.068143553	0.05
16	2335	23.187547339	0.05
16	2355	23.312063982	0.05
16	2365	23.42550412	0.05
16	2375	23.54240028	0.05
16	2385	23.667237888	0.05
16	2405	23.830950559	0.05
16	2415	23.918551177	0.05
16	2416	23.988699434206	0.05
16	2426	24.031189356	0.05
16	2436	24.129713996	0.05
16	2446	24.263433496	0.05
16	2457	24.362361123	0.05
16	2477	24.505222739	0.05
16	2487	24.621286983	0.05
16	2497	24.720338861	0.05
16	2507	24.813451816	0.05
16	2517	24.907295146	0.05
16	2527	25.046698467	0.05
16	2537	25.195023864	0.05
16	2557	25.370069663	0.05
16	2577	25.53532357	0.05
16	2588	25.695221113	0.05
16	2608	25.866544578	0.05
16	2618	25.99706004	0.05
16	2638	26.143475178	0.05
16	2648	26.269918411	0.05
16	2659	26.391775417	0.05
16	2679	26.514264123	0.05
16	2689	26.635462708	0.05
16	2699	26.76234481	0.05
16	2709	26.879343897	0.05
16	2729	27.007146585	0.05
16	2739	27.133399547	0.05
16	2749	27.262235951	0.05
16	2759	27.371031735	0.05
16	2769	27.490563078	0.05
16	2789	27.614324828	0.05
16	2799	27.73675246	0.05
16	2809	27.860444999	0.05
16	2819	27.994265097	0.05
16	2839	28.121355829	0.05
16	2849	28.239999212	0.05
16	2859	28.334853199	0.05
16	2869	28.457547339	0.05
16	2879	28.59146898	0.05
16	2899	28.75887712	0.05
16	2919	28.942497464	0.05
16	2929	29.098406126	0.05
16	2949	29.263750241	0.05
16	2969	29.413427306	0.05
16	2979	29.531551082	0.05
16	2989	29.620613086	0.05
16	2999	29.709326933	0.05
16	3009	29.8077056	0.05
16	3019	29.943037287	0.05
16	3029	30.033604971	0.05
16	3039	30.146755901	0.05
16	3049	30.242890834	0.05
16	3059	30.357864786	0.05
16	3069	30.476802176	0.05
16	3089	30.602634111	0.05
16	3099	30.716366319	0.05
16	3109	30.837063711	0.05
16	3119	30.963714527	0.05
16	3129	31.056487872	0.05
16	3139	31.172867098	0.05
16	3149	31.299515167	0.05
16	3169	31.418774571	0.05
16	3179	31.51779012	0.05
16	3189	31.615082932	0.05
16	3199	31.712792248	0.05
16	3209	31.804891526	0.05
16	3220	31.93880111	0.05
16	3232	32.083944831	0.05
16	3249	32.217539255	0.05
16	3260	32.35423953	0.05
16	3272	32.493013721	0.05
16	3289	32.612748717	0.05
16	3300	32.73864047	0.05
16	3311	32.87037463	0.05
16	3321	32.968982287	0.05
16	3339	33.102661028	0.05
16	3350	33.237892441	0.05
16	3361	33.372423414	0.05
16	3379	33.508431344	0.05
16	3391	33.636845862	0.05
16	3402	33.769673876	0.05
16	3413	33.896386864	0.05
16	3423	33.99569248	0.05
16	3440	34.117739126	0.05
16	3451	34.245419294	0.05
16	3462	34.378485602	0.05
16	3480	34.50932938	0.05
16	3491	34.64387516	0.05
16	3503	34.786371588	0.05
16	3520	34.907175059	0.05
16	3531	35.044982748	0.05
16	3542	35.163031282	0.05
16	3552	35.277774876	0.05
16	3562	35.373879173	0.05
16	3573	35.492709996	0.05
16	3590	35.619904839	0.05
16	3602	35.767060557	0.05
16	3613	35.891865407	0.05
16	3623	35.988267085	0.05
16	3633	36.086522058	0.05
16	3660	36.304791955	0.05
16	3680	36.50774725	0.05
16	3692	36.673746133	0.05
16	3710	36.821919871	0.05
16	3721	36.942059071	0.05
16	3741	37.13646116	0.05
16	3762	37.336077925	0.05
16	3781	37.512803132	0.05
16	3793	37.657535865	0.05
16	3803	37.776375861	0.05
16	3821	37.902841785	0.05
16	3831	38.019358748	0.05
16	3841	38.111783644	0.05
16	3851	38.205678969	0.05
16	3871	38.412631124	0.05
16	3893	38.666250574	0.05
16	3921	38.908069725	0.05
16	3934	39.084042448	0.05
16	3961	39.318459533	0.05
16	3981	39.51870999	0.05
16	3994	39.674256079	0.05
16	4012	39.838000618	0.05
16	4042	40.137139589	0.05
16	4058	40.3	0.05
16	4076	40.492793238	0.05
17	0	0	0.004
17	2416	23.988699434206	0
18	0	0	0.05
18	0	0.1	0.05
18	10	0.103240267	0.05
18	10	0.157755902	0.05
18	20	0.217890373	0.05
18	20	0.285045537	0.05
18	30	0.343419728	0.05
18	40	0.419274093	0.05
18	41	0.48538859	0.05
18	51	0.561336552	0.05
18	61	0.629822621	0.05
18	71	0.715743898	0.05
18	81	0.867675319	0.05
18	91	0.951774976	0.05
18	101	1.041873066	0.05
18	111	1.135548601	0.05
18	131	1.317741504	0.05
18	141	1.414481464	0.05
18	151	1.505968187	0.05
18	151	1.574696536	0.05
18	161	1.656302937	0.05
18	171	1.753955225	0.05
18	181	1.835818891	0.05
18	191	1.907279328	0.05
18	191	1.989072049	0.05
18	201	2.05063363	0.05
18	211	2.123810671	0.05
18	211	2.18749591	0.05
18	221	2.251167723	0.05
18	231	2.321895885	0.05
18	231	2.395006588	0.05
18	241	2.464429055	0.05
18	251	2.563070089	0.05
18	261	2.651166208	0.05
18	271	2.739942518	0.05
18	281	2.840074637	0.05
18	291	2.976303806	0.05
18	292	3	0.05
18	302	3.0204370462	0.05
18	302	3.029961033	0.05
18	302	3.039414732	0.05
18	302	3.0462116037	0.05
18	302	3.0514183952	0.05
18	302	3.0568433649	0.05
18	302	3.0622820143	0.05
18	302	3.0682666334	0.05
18	302	3.0754062011	0.05
18	302	3.083415495	0.05
18	302	3.0908709453	0.05
18	302	3.0986779893	0.05
18	303	3.1	0.05
18	313	3.1075079116	0.05
18	313	3.1166837477	0.05
18	313	3.1228203929	0.05
18	313	3.1301081614	0.05
18	313	3.1402179337	0.05
18	313	3.1463138506	0.05
18	313	3.1540695492	0.05
18	313	3.1598488487	0.05
18	313	3.1684572675	0.05
18	313	3.1750732273	0.05
18	313	3.1826048862	0.05
18	313	3.1896406105	0.05
18	313	3.1975426157	0.05
18	314	3.2	0.05
18	324	3.2092730088	0.05
18	324	3.2177530704	0.05
18	324	3.2232503361	0.05
18	324	3.2296644381	0.05
18	324	3.2348874578	0.05
18	324	3.2393330345	0.05
18	324	3.2467952954	0.05
18	324	3.2523589084	0.05
18	324	3.2576059318	0.05
18	324	3.2619051101	0.05
18	324	3.2675537761	0.05
18	324	3.2726286614	0.05
18	324	3.2800670441	0.05
18	324	3.2877794413	0.05
18	324	3.2951863377	0.05
18	325	3.3	0.05
18	335	3.3070414205	0.05
18	335	3.3163222917	0.05
18	335	3.3248627443	0.05
18	335	3.3346727726	0.05
18	335	3.3425441976	0.05
18	335	3.3489168291	0.05
18	335	3.3585434824	0.05
18	335	3.374182598	0.05
18	335	3.3864476816	0.05
18	335	3.3920275563	0.05
18	335	3.3996686711	0.05
18	336	3.4	0.05
18	346	3.4087509837	0.05
18	346	3.4185645727	0.05
18	346	3.4255560025	0.05
18	346	3.4328291841	0.05
18	346	3.4398470214	0.05
18	346	3.4471644819	0.05
18	346	3.4553202311	0.05
18	346	3.4647163792	0.05
18	346	3.4727710037	0.05
18	346	3.4831906225	0.05
18	346	3.4909592685	0.05
18	346	3.4991823311	0.05
18	347	3.5	0.05
18	357	3.5061643303	0.05
18	357	3.5153273753	0.05
18	357	3.5244735373	0.05
18	357	3.531817779	0.05
18	357	3.5393027482	0.05
18	357	3.5476445676	0.05
18	357	3.5538601737	0.05
18	357	3.5616112246	0.05
18	357	3.5675392383	0.05
18	357	3.5744603228	0.05
18	357	3.5839772017	0.05
18	357	3.590733817	0.05
18	357	3.5982550522	0.05
18	358	3.6	0.05
18	368	3.6083497408	0.05
18	368	3.6171514082	0.05
18	368	3.6255845523	0.05
18	368	3.6336247775	0.05
18	368	3.6414985088	0.05
18	368	3.6492488006	0.05
18	368	3.6582538587	0.05
18	368	3.6659366643	0.05
18	368	3.6731222908	0.05
18	368	3.6808237685	0.05
18	368	3.6895153457	0.05
18	368	3.6960762252	0.05
18	369	3.7	0.05
18	379	3.7085292406	0.05
18	379	3.7171454273	0.05
18	379	3.727926571	0.05
18	379	3.7395330376	0.05
18	379	3.7478949161	0.05
18	379	3.756869272	0.05
18	379	3.7667423765	0.05
18	379	3.7784600966	0.05
18	379	3.7888556276	0.05
18	379	3.796521971	0.05
18	380	3.8	0.05
18	390	3.809191325	0.05
18	390	3.817951401	0.05
18	390	3.8283395153	0.05
18	390	3.837142554	0.05
18	390	3.8459378136	0.05
18	390	3.8530863943	0.05
18	390	3.8599286721	0.05
18	390	3.8653088274	0.05
18	390	3.8737616442	0.05
18	390	3.8807346837	0.05
18	390	3.8904457425	0.05
18	390	3.8999566614	0.05
18	391	3.9	0.05
18	401	3.9079040997	0.05
18	401	3.9166702763	0.05
18	401	3.9249410031	0.05
18	401	3.9331412004	0.05
18	401	3.9410036622	0.05
18	401	3.9484589131	0.05
18	401	3.9562574326	0.05
18	401	3.9641409598	0.05
18	401	3.9724967677	0.05
18	401	3.9796555378	0.05
18	401	3.9892458813	0.05
18	401	3.9968079201	0.05
18	402	4	0.05
18	412	4.009586077	0.05
18	412	4.017386239	0.05
18	412	4.0260762452	0.05
18	412	4.0319007624	0.05
18	412	4.0402344772	0.05
18	412	4.0471103927	0.05
18	413	4.0553078892	0.05
18	413	4.0614344277	0.05
18	413	4.068238628	0.05
18	413	4.0800996966	0.05
18	413	4.0882801602	0.05
18	413	4.0969212518	0.05
18	414	4.1	0.05
18	424	4.1099209461	0.05
18	424	4.1244359195	0.05
18	424	4.1307996046	0.05
18	424	4.1394888275	0.05
18	424	4.1467656047	0.05
18	424	4.1552184003	0.05
18	424	4.1623741158	0.05
18	424	4.1718416624	0.05
18	424	4.1790042434	0.05
18	424	4.1861069657	0.05
18	424	4.1936139451	0.05
18	424	4.1999733814	0.05
18	425	4.2	0.05
18	435	4.2074531891	0.05
18	435	4.215791983	0.05
18	435	4.2229006476	0.05
18	435	4.2307310955	0.05
18	435	4.2375503308	0.05
18	435	4.2453713246	0.05
18	435	4.2559169762	0.05
18	435	4.2665802041	0.05
18	435	4.2746632351	0.05
18	435	4.2833692978	0.05
18	435	4.2914747921	0.05
18	435	4.2993925898	0.05
18	436	4.3	0.05
18	446	4.306797128	0.05
18	446	4.3175040139	0.05
18	446	4.3244029293	0.05
18	446	4.3297828894	0.05
18	446	4.3383351481	0.05
18	446	4.3480023466	0.05
18	446	4.358298429	0.05
18	446	4.3670816315	0.05
18	446	4.3735372165	0.05
18	446	4.3806810748	0.05
18	446	4.3866291508	0.05
18	446	4.39476731	0.05
18	447	4.4	0.05
18	457	4.4078570132	0.05
18	457	4.416896254	0.05
18	457	4.4272643286	0.05
18	457	4.4358623655	0.05
18	457	4.4453776008	0.05
18	457	4.4511067306	0.05
18	457	4.4588465177	0.05
18	457	4.4664762974	0.05
18	457	4.4749703114	0.05
18	457	4.4839549458	0.05
18	457	4.4941503131	0.05
18	458	4.5	0.05
18	468	4.575892368	0.05
18	478	4.666268957	0.05
18	488	4.7506722	0.05
18	498	4.825795926	0.05
18	508	4.906773051	0.05
18	508	4.994621377	0.05
18	518	5.079333035	0.05
18	528	5.151891232	0.05
18	538	5.2380512	0.05
18	548	5.36212559	0.05
18	558	5.456883732	0.05
18	569	5.5049876935	0.05
18	569	5.5151838412	0.05
18	569	5.5233958586	0.05
18	569	5.5320608103	0.05
18	569	5.5385730971	0.05
18	569	5.5470420889	0.05
18	569	5.5563229698	0.05
18	569	5.563985805	0.05
18	569	5.570854292	0.05
18	569	5.577777882	0.05
18	569	5.5870740211	0.05
18	569	5.5974713063	0.05
18	570	5.6	0.05
18	580	5.672922902	0.05
18	600	5.839555496	0.05
18	610	5.961093466	0.05
18	620	6.055447182	0.05
18	631	6.143644123	0.05
18	641	6.259284372	0.05
18	651	6.375088418	0.05
18	661	6.460439414	0.05
18	671	6.551948667	0.05
18	681	6.642902853	0.05
18	691	6.795907486	0.05
18	711	6.920152394	0.05
18	721	7.080172232	0.05
18	741	7.223267948	0.05
18	751	7.340352225	0.05
18	761	7.438157171	0.05
18	781	7.605516736	0.05
18	781	7.691762481	0.05
18	791	7.785144397	0.05
18	801	7.899263074	0.05
18	811	7.998792866	0.05
18	821	8.092765055	0.05
18	831	8.189529242	0.05
18	841	8.276127813	0.05
18	851	8.368362386	0.05
18	861	8.441708436	0.05
18	871	8.522827279	0.05
18	881	8.617592107	0.05
18	881	8.699867421	0.05
18	891	8.782896593	0.05
18	901	8.899999369	0.05
18	911	8.996750699	0.05
18	921	9.076007037	0.05
18	931	9.168509232	0.05
18	941	9.267060411	0.05
18	951	9.351373192	0.05
18	961	9.443012053	0.05
18	971	9.538507312	0.05
18	981	9.620975275	0.05
18	991	9.712118854	0.05
18	1001	9.809882992	0.05
18	1011	9.906475636	0.05
18	1011	9.997231398	0.05
18	1021	10.083391045	0.05
18	1031	10.197665882	0.05
18	1041	10.272263914	0.05
18	1051	10.363792447	0.05
18	1061	10.462003777	0.05
18	1071	10.553417949	0.05
18	1081	10.684795193	0.05
18	1091	10.783242467	0.05
18	1101	10.88196016	0.05
18	1111	10.968319736	0.05
18	1121	11.064600591	0.05
18	1131	11.150633445	0.05
18	1141	11.266977883	0.05
18	1151	11.388010418	0.05
18	1161	11.479435896	0.05
18	1171	11.571719849	0.05
18	1181	11.662613671	0.05
18	1191	11.752404968	0.05
18	1201	11.880497244	0.05
18	1221	12.01116614	0.05
18	1231	12.121774421	0.05
18	1241	12.204074462	0.05
18	1241	12.2982658	0.05
18	1251	12.390752673	0.05
18	1261	12.47949882	0.05
18	1281	12.609167656	0.05
18	1291	12.706629436	0.05
18	1301	12.81738241	0.05
18	1311	12.913043289	0.05
18	1321	13.055839473	0.05
18	1331	13.188026761	0.05
18	1341	13.285091841	0.05
18	1351	13.370008343	0.05
18	1361	13.484992952	0.05
18	1372	13.578861607	0.05
18	1382	13.678934661	0.05
18	1392	13.77371361	0.05
18	1402	13.89625413	0.05
18	1412	13.978462887	0.05
18	1422	14.066780384	0.05
18	1432	14.157645376	0.05
18	1442	14.253518901	0.05
18	1452	14.371621902	0.05
18	1462	14.471391153	0.05
18	1472	14.591190423	0.05
18	1492	14.72038391	0.05
18	1502	14.84035624	0.05
18	1512	14.952783371	0.05
18	1522	15.07369834	0.05
18	1532	15.17086344	0.05
18	1542	15.264785443	0.05
18	1552	15.350095726	0.05
18	1562	15.470322937	0.05
18	1572	15.59287516	0.05
18	1592	15.711370413	0.05
18	1602	15.851307695	0.05
18	1612	15.974312122	0.05
18	1633	16.106307182	0.05
18	1643	16.274303416	0.05
18	1663	16.485659394	0.05
18	1683	16.629958393	0.05
18	1693	16.768884726	0.05
18	1703	16.867451436	0.05
18	1713	16.977385672	0.05
18	1723	17.088957052	0.05
18	1733	17.175629916	0.05
18	1743	17.28743159	0.05
18	1753	17.398025437	0.05
18	1773	17.529112331	0.05
18	1783	17.626545144	0.05
18	1793	17.778754441	0.05
18	1803	17.878297016	0.05
18	1823	18.023481492	0.05
18	1833	18.185917486	0.05
18	1853	18.348572339	0.05
18	1874	18.525619188	0.05
18	1884	18.691019724	0.05
18	1904	18.864780586	0.05
18	1924	19.037562123	0.05
18	1934	19.177883074	0.05
18	1955	19.321210307	0.05
18	1965	19.43925465	0.05
18	1975	19.553341272	0.05
18	1985	19.664673358	0.05
18	1995	19.758698045	0.05
18	2005	19.855167443	0.05
18	2015	19.986143709	0.05
18	2035	20.112358307	0.05
18	2045	20.242375808	0.05
18	2055	20.361830206	0.05
18	2065	20.460045147	0.05
18	2075	20.56003255	0.05
18	2095	20.726184114	0.05
18	2105	20.893750834	0.05
18	2125	21.015649568	0.05
18	2135	21.146040608	0.05
18	2145	21.258443148	0.05
18	2155	21.34764229	0.05
18	2165	21.465891185	0.05
18	2175	21.586495846	0.05
18	2185	21.686134789	0.05
18	2195	21.779034176	0.05
18	2205	21.899526369	0.05
18	2225	22.014411606	0.05
18	2225	22.095528679	0.05
18	2245	22.223426994	0.05
18	2255	22.337981358	0.05
18	2265	22.453374208	0.05
18	2275	22.53883161	0.05
18	2285	22.632700525	0.05
18	2295	22.724889541	0.05
18	2305	22.818280793	0.05
18	2315	22.940445543	0.05
18	2325	23.068143553	0.05
18	2335	23.187547339	0.05
18	2355	23.312063982	0.05
18	2365	23.42550412	0.05
18	2375	23.54240028	0.05
18	2385	23.667237888	0.05
18	2405	23.830950559	0.05
18	2415	23.918551177	0.05
18	2426	24.031189356	0.05
18	2436	24.129713996	0.05
18	2446	24.263433496	0.05
18	2457	24.362361123	0.05
18	2477	24.505222739	0.05
18	2487	24.621286983	0.05
18	2497	24.720338861	0.05
18	2507	24.813451816	0.05
18	2517	24.907295146	0.05
18	2527	25.046698467	0.05
18	2537	25.195023864	0.05
18	2557	25.370069663	0.05
18	2577	25.53532357	0.05
18	2588	25.695221113	0.05
18	2608	25.866544578	0.05
18	2618	25.99706004	0.05
18	2638	26.143475178	0.05
18	2648	26.269918411	0.05
18	2659	26.391775417	0.05
18	2679	26.514264123	0.05
18	2689	26.635462708	0.05
18	2699	26.76234481	0.05
18	2709	26.879343897	0.05
18	2729	27.007146585	0.05
18	2739	27.133399547	0.05
18	2749	27.262235951	0.05
18	2759	27.371031735	0.05
18	2769	27.490563078	0.05
18	2789	27.614324828	0.05
18	2799	27.73675246	0.05
18	2809	27.860444999	0.05
18	2819	27.994265097	0.05
18	2839	28.121355829	0.05
18	2849	28.239999212	0.05
18	2859	28.334853199	0.05
18	2869	28.457547339	0.05
18	2879	28.59146898	0.05
18	2899	28.75887712	0.05
18	2919	28.942497464	0.05
18	2929	29.098406126	0.05
18	2949	29.263750241	0.05
18	2969	29.413427306	0.05
18	2979	29.531551082	0.05
18	2989	29.620613086	0.05
18	2999	29.709326933	0.05
18	3009	29.8077056	0.05
18	3019	29.943037287	0.05
18	3029	30.033604971	0.05
18	3039	30.146755901	0.05
18	3049	30.242890834	0.05
18	3059	30.357864786	0.05
18	3069	30.476802176	0.05
18	3089	30.602634111	0.05
18	3099	30.716366319	0.05
18	3109	30.837063711	0.05
18	3119	30.963714527	0.05
18	3129	31.056487872	0.05
18	3139	31.172867098	0.05
18	3149	31.299515167	0.05
18	3169	31.418774571	0.05
18	3179	31.51779012	0.05
18	3189	31.615082932	0.05
18	3199	31.712792248	0.05
18	3209	31.804891526	0.05
18	3220	31.93880111	0.05
18	3232	32.083944831	0.05
18	3249	32.217539255	0.05
18	3260	32.35423953	0.05
18	3272	32.493013721	0.05
18	3289	32.612748717	0.05
18	3300	32.73864047	0.05
18	3311	32.87037463	0.05
18	3321	32.968982287	0.05
18	3339	33.102661028	0.05
18	3350	33.237892441	0.05
18	3361	33.372423414	0.05
18	3379	33.508431344	0.05
18	3391	33.636845862	0.05
18	3402	33.769673876	0.05
18	3413	33.896386864	0.05
18	3423	33.99569248	0.05
18	3440	34.117739126	0.05
18	3451	34.245419294	0.05
18	3462	34.378485602	0.05
18	3480	34.50932938	0.05
18	3491	34.64387516	0.05
18	3503	34.786371588	0.05
18	3520	34.907175059	0.05
18	3531	35.044982748	0.05
18	3542	35.163031282	0.05
18	3552	35.277774876	0.05
18	3562	35.373879173	0.05
18	3573	35.492709996	0.05
18	3590	35.619904839	0.05
18	3602	35.767060557	0.05
18	3613	35.891865407	0.05
18	3623	35.988267085	0.05
18	3633	36.086522058	0.05
18	3660	36.304791955	0.05
18	3680	36.50774725	0.05
18	3692	36.673746133	0.05
18	3710	36.821919871	0.05
18	3721	36.942059071	0.05
18	3741	37.13646116	0.05
18	3762	37.336077925	0.05
18	3781	37.512803132	0.05
18	3793	37.657535865	0.05
18	3803	37.776375861	0.05
18	3821	37.902841785	0.05
18	3831	38.019358748	0.05
18	3841	38.111783644	0.05
18	3851	38.205678969	0.05
18	3871	38.412631124	0.05
18	3893	38.666250574	0.05
18	3921	38.908069725	0.05
18	3934	39.084042448	0.05
18	3961	39.318459533	0.05
18	3981	39.51870999	0.05
18	3994	39.674256079	0.05
18	4012	39.838000618	0.05
18	4042	40.137139589	0.05
18	4058	40.3	0.05
18	4076	40.492793238	0.05
19	0	0	0.004
20	0	0	0.004
20	2578	25.53579685873	0
21	0	0	0.004
21	1945	19.270866461683	0
22	0	0	0.004
22	1864	18.445682293898	0
23	0	0	0.004
23	1623	16.042367550778	0
24	0	0	0.004
24	3751	37.206370643792	0
25	0	0	0.004
25	631	6.101212268413	0
25	2659	26.354131781648	0.004
25	3381	33.549554074746	0
26	0	0	0.004
26	41	0.474214230027	0
26	2447	24.269956918581	0.004
26	4052	40.204123173573	0
27	0	0	0.004
27	413	4.053412236149	0
27	1372	13.568464185794	0.004
28	0	0	0.004
28	2416	23.988699434206	0
29	0	0	0.004

