version 2
run Mysterio_ex2-0-20210909-13:39:58-4697
attr configname Mysterio_ex2
attr datetime 20210909-13:39:58
attr experiment Mysterio_ex2
attr inifile omnetpp.ini
attr iterationvars ""
attr iterationvarsf ""
attr measurement ""
attr network MysterioCommunication2
attr processid 4697
attr repetition 0
attr replication #0
attr resultdir results
attr runnumber 0
attr seedset 0
param *.host[*].mobility.numeroDrones 2
param *.numHosts 2
param *.host[*].osgModel "\"3d/drone.ive.100.scale.0,0,90.rot\""
param *.basestation.osgModel "\"3d/car.ive.50.scale.0,0,90.rot\""
param *.canvasVisualizer.energyStorageVisualizer.displayEnergyStorages true
param *.host[*].hasStatus true
param *.host[*].energyStorage.typename "\"SimpleEpEnergyStorage\""
param *.host[*].wlan[*].radio.energyConsumer.typename "\"StateBasedEpEnergyConsumer\""
param *.host[*].energyManagement.typename "\"SimpleEpEnergyManagement\""
param *.host[*].energyStorage.nominalCapacity 0.05J
param *.host[*].energyManagement.nodeShutdownCapacity "0.1 * energyStorage.nominalCapacity"
param *.host[*].energyManagement.nodeStartCapacity "0.5 * energyStorage.nominalCapacity"
param *.host[*].energyStorage.initialCapacity 0.05J
param *.host[*].energyGenerator.typename "\"AlternatingEpEnergyGenerator\""
param *.host[*].energyGenerator.powerGeneration 4mW
param *.host[*].energyGenerator.sleepInterval exponential(25s)
param *.host[*].energyGenerator.generationInterval exponential(25s)
param *.host[*].mobility.typename "\"UAVMobility\""
param *.host[*].mobility.changeInterval 1s
param *.host[*].mobility.initialMovementHeading "uniform(0deg, 360deg)"
param *.host[*].mobility.initialMovementElevation "uniform(-90deg, 90deg)"
param *.host[*].mobility.angleDelta uniform(-10deg,10deg)
param *.host[*].mobility.rotationAxisAngle uniform(-10deg,10deg)
param *.host[*].mobility.speed uniform(10mps,20mps)
param *.host[*].mobility.faceForward false
param *.host[*].mobility.initialX 220m
param *.host[*].mobility.initialY 220m
param *.host[*].mobility.initialZ 80m
param *.visualizer.osgVisualizer.typename "\"IntegratedOsgVisualizer\""
param *.visualizer.osgVisualizer.sceneVisualizer.clearColor "\"skyblue\""
param *.visualizer.osgVisualizer.sceneVisualizer.sceneImage "\"showcases/desert\""
param *.visualizer.osgVisualizer.sceneVisualizer.sceneImageSize 5000m
param *.visualizer.osgVisualizer.sceneVisualizer.axisLength 1000m
param *.visualizer.osgVisualizer.sceneVisualizer.sceneMinX -2000m
param *.visualizer.osgVisualizer.sceneVisualizer.sceneMinY -2000m
param *.visualizer.osgVisualizer.sceneVisualizer.sceneMinZ 0m
param *.visualizer.osgVisualizer.sceneVisualizer.sceneMaxX 3000m
param *.visualizer.osgVisualizer.sceneVisualizer.sceneMaxY 3000m
param *.visualizer.osgVisualizer.sceneVisualizer.sceneMaxZ 1000m
param *.visualizer.osgVisualizer.networkNodeVisualizer.displayModuleName false
param *.visualizer.*.mobilityVisualizer.displayMobility true
param *.visualizer.*.mobilityVisualizer.displayPositions true
param *.visualizer.*.mobilityVisualizer.displayOrientations false
param *.visualizer.*.mobilityVisualizer.displayVelocities true
param *.visualizer.*.mobilityVisualizer.displayMovementTrails true
param *.visualizer.*.mobilityVisualizer.animationSpeed 3
param **.constraintAreaMinX 0m
param **.constraintAreaMinY 0m
param **.constraintAreaMinZ 0m
param **.constraintAreaMaxX 1000m
param **.constraintAreaMaxY 1000m
param **.constraintAreaMaxZ 1000m
param **.networkConfiguratorModule "\"\""

vector 0 MysterioCommunication2.host[0].energyStorage residualEnergyCapacity:vector ETV
attr interpolationmode linear
attr source residualEnergyCapacityChanged
attr title "Residual energy capacity, vector"
vector 1 MysterioCommunication2.host[0].energyGenerator powerGeneration:vector ETV
attr interpolationmode sample-hold
attr source powerGenerationChanged
attr title "Power generation, vector"
vector 2 MysterioCommunication2.host[1].energyStorage residualEnergyCapacity:vector ETV
attr interpolationmode linear
attr source residualEnergyCapacityChanged
attr title "Residual energy capacity, vector"
vector 3 MysterioCommunication2.host[1].energyGenerator powerGeneration:vector ETV
attr interpolationmode sample-hold
attr source powerGenerationChanged
attr title "Power generation, vector"
vector 4 MysterioCommunication2.host[0].energyStorage powerGeneration:vector ETV
attr interpolationmode sample-hold
attr source powerGenerationChanged
attr title "Power generation, vector"
vector 5 MysterioCommunication2.host[1].energyStorage powerGeneration:vector ETV
attr interpolationmode sample-hold
attr source powerGenerationChanged
attr title "Power generation, vector"
0	0	0	0.05
0	0	0.1	0.05
0	2	0.15706615	0.05
0	3	0.2	0.05
0	5	0.3	0.05
0	7	0.4	0.05
0	9	0.5	0.05
0	11	0.6	0.05
0	12	0.678152836	0.05
0	13	0.7	0.05
0	15	0.8	0.05
0	17	0.9	0.05
0	19	1	0.05
0	21	1.1	0.05
0	23	1.2	0.05
0	25	1.3	0.05
0	26	1.371743992	0.0495
0	26	1.371743992	0.0495
0	27	1.4	0.049613024032
0	29	1.5	0.05
0	31	1.6	0.05
0	32	1.623176959	0.05
0	33	1.7	0.05
0	35	1.8	0.05
0	37	1.9	0.05
0	38	1.908490468	0.05
0	39	2	0.05
0	41	2.1	0.05
0	42	2.157341815	0.05
0	43	2.2	0.05
0	45	2.3	0.05
0	47	2.4	0.05
0	49	2.5	0.05
0	50	2.595531733	0.05
0	51	2.6	0.05
0	53	2.7	0.05
0	55	2.8	0.05
0	57	2.9	0.05
0	59	3	0.05
0	60	3.042308926	0.05
0	61	3.1	0.05
0	63	3.2	0.05
0	65	3.3	0.05
0	67	3.4	0.05
0	68	3.437571223	0.05
0	69	3.5	0.05
0	71	3.6	0.05
0	73	3.7	0.05
0	75	3.8	0.05
0	77	3.9	0.05
0	78	3.932050624	0.05
0	79	4	0.05
0	81	4.1	0.05
0	83	4.2	0.05
0	85	4.3	0.05
0	86	4.364335108	0.05
0	87	4.4	0.05
0	89	4.5	0.05
0	91	4.6	0.05
0	92	4.646120887	0.05
0	93	4.7	0.05
0	95	4.8	0.05
0	97	4.9	0.05
0	99	5	0.05
0	101	5.1	0.05
0	103	5.2	0.05
0	104	5.248594204	0.05
0	105	5.3	0.05
0	107	5.4	0.05
0	109	5.5	0.05
0	111	5.6	0.05
0	112	5.670949924	0.05
0	113	5.7	0.05
0	115	5.8	0.05
0	117	5.9	0.05
0	119	6	0.05
0	121	6.1	0.05
0	122	6.147966583	0.05
0	123	6.2	0.05
0	125	6.3	0.05
0	127	6.4	0.05
0	129	6.5	0.05
0	131	6.6	0.05
0	133	6.7	0.05
0	134	6.729724459	0.05
0	135	6.8	0.05
0	137	6.9	0.05
0	138	6.996380611	0.05
0	139	7	0.05
0	141	7.1	0.05
0	143	7.2	0.05
0	144	7.27879195	0.05
0	145	7.3	0.05
0	147	7.4	0.05
0	149	7.5	0.05
0	151	7.6	0.05
0	153	7.7	0.05
0	155	7.8	0.05
0	157	7.9	0.05
0	158	7.971608713	0.05
0	159	8	0.05
0	161	8.1	0.05
0	163	8.2	0.05
0	164	8.216200909	0.05
0	165	8.3	0.05
0	167	8.4	0.05
0	169	8.5	0.05
0	170	8.502681343	0.05
0	171	8.6	0.05
0	173	8.7	0.05
0	174	8.758660537	0.05
0	175	8.8	0.05
0	177	8.9	0.05
0	179	9	0.05
0	181	9.1	0.05
0	182	9.169017022	0.05
0	183	9.2	0.05
0	185	9.3	0.05
0	187	9.4	0.05
0	189	9.5	0.05
0	191	9.6	0.05
0	192	9.64144798	0.05
0	193	9.7	0.05
0	195	9.8	0.05
0	196	9.862511425	0.05
0	197	9.9	0.05
0	199	10	0.05
0	201	10.1	0.05
0	203	10.2	0.05
0	204	10.240932562	0.05
0	205	10.3	0.05
0	207	10.4	0.05
0	209	10.5	0.05
0	210	10.514614558	0.05
0	211	10.6	0.05
0	213	10.7	0.05
0	214	10.777425463	0.0495
0	214	10.777425463	0.0495
0	215	10.8	0.049590298148
0	217	10.9	0.049990298148
0	219	11	0.05
0	220	11.051989123	0.05
0	221	11.1	0.05
0	223	11.2	0.05
0	225	11.3	0.05
0	227	11.4	0.05
0	229	11.5	0.05
0	231	11.6	0.05
0	232	11.648497816	0.05
0	233	11.7	0.05
0	235	11.8	0.05
0	237	11.9	0.05
0	239	12	0.05
0	241	12.1	0.05
0	243	12.2	0.05
0	245	12.3	0.05
0	246	12.364279183	0.05
0	247	12.4	0.05
0	249	12.5	0.05
0	251	12.6	0.05
0	253	12.7	0.05
0	255	12.8	0.05
0	257	12.9	0.05
0	258	12.910982923	0.05
0	259	13	0.05
0	261	13.1	0.05
0	263	13.2	0.05
0	265	13.3	0.05
0	267	13.4	0.05
0	268	13.454698588	0.05
0	269	13.5	0.05
0	271	13.6	0.05
0	273	13.7	0.05
0	275	13.8	0.05
0	277	13.9	0.05
0	278	13.919502475	0.05
0	279	14	0.05
0	281	14.1	0.05
0	282	14.1836677	0.05
0	283	14.2	0.05
0	285	14.3	0.05
0	287	14.4	0.05
0	289	14.5	0.05
0	290	14.591015767	0.05
0	291	14.6	0.05
0	293	14.7	0.05
0	295	14.8	0.05
0	297	14.9	0.05
0	299	15	0.05
0	300	15.038252629	0.05
0	301	15.1	0.05
0	303	15.2	0.05
0	305	15.3	0.05
0	307	15.4	0.05
0	308	15.474867697	0.05
0	309	15.5	0.05
0	311	15.6	0.05
0	313	15.7	0.05
0	315	15.8	0.05
0	317	15.9	0.05
0	318	15.905981374	0.05
0	319	16	0.05
0	321	16.1	0.05
0	323	16.2	0.05
0	325	16.3	0.05
0	326	16.378789174	0.0495
0	326	16.378789174	0.0495
0	327	16.4	0.049584843304
0	329	16.5	0.049984843304
0	331	16.6	0.05
0	332	16.617240607	0.05
0	333	16.7	0.05
0	335	16.8	0.05
0	337	16.9	0.05
0	338	16.997884858	0.05
0	339	17	0.05
0	341	17.1	0.05
0	343	17.2	0.05
0	344	17.258043949	0.05
0	345	17.3	0.05
0	347	17.4	0.05
0	349	17.5	0.05
0	350	17.506771585	0.05
0	351	17.6	0.05
0	353	17.7	0.05
0	354	17.722846741	0.05
0	355	17.8	0.05
0	357	17.9	0.05
0	358	17.946520462	0.05
0	359	18	0.05
0	361	18.1	0.05
0	363	18.2	0.05
0	365	18.3	0.05
0	366	18.347171485	0.05
0	367	18.4	0.05
0	369	18.5	0.05
0	371	18.6	0.05
0	372	18.631620661	0.05
0	373	18.7	0.05
0	375	18.8	0.05
0	377	18.9	0.05
0	379	19	0.05
0	380	19.082472874	0.05
0	381	19.1	0.05
0	383	19.2	0.05
0	385	19.3	0.05
0	386	19.354075273	0.05
0	387	19.4	0.05
0	389	19.5	0.05
0	391	19.6	0.05
0	393	19.7	0.05
0	395	19.8	0.05
0	396	19.808427748	0.05
0	397	19.9	0.05
0	399	20	0.05
0	401	20.1	0.05
0	403	20.2	0.05
0	404	20.23614577	0.0495
0	404	20.23614577	0.0495
0	405	20.3	0.04975541692
0	407	20.4	0.05
0	409	20.5	0.05
0	410	20.530180888	0.05
0	411	20.6	0.05
0	413	20.7	0.05
0	415	20.8	0.05
0	417	20.9	0.05
0	419	21	0.05
0	420	21.029936518	0.05
0	421	21.1	0.05
0	423	21.2	0.05
0	425	21.3	0.05
0	427	21.4	0.05
0	429	21.5	0.05
0	430	21.540659017	0.05
0	431	21.6	0.05
0	433	21.7	0.05
0	435	21.8	0.05
0	437	21.9	0.05
0	439	22	0.05
0	440	22.061521852	0.05
0	441	22.1	0.05
0	443	22.2	0.05
0	445	22.3	0.05
0	447	22.4	0.05
0	448	22.496641603	0.05
0	449	22.5	0.05
0	451	22.6	0.05
0	453	22.7	0.05
0	455	22.8	0.05
0	457	22.9	0.05
0	458	22.975158079	0.05
0	459	23	0.05
0	461	23.08057828677	0.05
0	462	23.1	0.05
0	464	23.2	0.05
0	466	23.3	0.05
0	468	23.4	0.05
0	469	23.418224374	0.05
0	470	23.5	0.05
0	472	23.6	0.05
0	474	23.7	0.05
0	476	23.8	0.05
0	478	23.9	0.05
0	479	23.910921967	0.05
0	480	24	0.05
0	482	24.1	0.05
0	484	24.2	0.05
0	486	24.3	0.05
0	487	24.354997303	0.05
0	488	24.4	0.0495
0	488	24.4	0.0495
0	490	24.5	0.0495
0	492	24.6	0.0495
0	493	24.638330989	0.0495
0	494	24.7	0.0495
0	496	24.8	0.0495
0	498	24.9	0.0495
0	500	25	0.0495
0	502	25.1	0.0495
0	504	25.152135109733	0.0495
0	505	25.2	0.049691459561068
0	506	25.249093861	0.049887835005068
0	507	25.277135109733	0.05
0	508	25.3	0.05
0	510	25.4	0.05
0	512	25.5	0.05
0	514	25.6	0.05
0	516	25.7	0.05
0	517	25.76554825	0.05
0	518	25.8	0.05
0	520	25.9	0.05
0	522	26	0.05
0	524	26.1	0.05
0	526	26.2	0.05
0	527	26.297577004	0.05
0	528	26.3	0.05
0	530	26.4	0.05
0	532	26.5	0.05
0	534	26.6	0.05
0	536	26.7	0.05
0	538	26.8	0.05
0	539	26.80864873	0.05
0	540	26.9	0.05
0	542	26.962612862598	0.05
0	543	27	0.05
0	545	27.1	0.05
0	547	27.2	0.05
0	548	27.293052916	0.05
0	549	27.3	0.05
0	551	27.4	0.05
0	553	27.5	0.05
0	555	27.6	0.05
0	557	27.7	0.05
0	558	27.79224499	0.05
0	559	27.8	0.05
0	561	27.9	0.05
0	563	28	0.05
0	565	28.1	0.05
0	566	28.185478135	0.05
0	567	28.2	0.05
0	569	28.3	0.05
0	571	28.4	0.05
0	573	28.5	0.05
0	575	28.6	0.05
0	576	28.631218906	0.05
0	577	28.7	0.05
0	579	28.8	0.05
0	581	28.9	0.05
0	583	29	0.05
0	584	29.052248536	0.05
0	585	29.1	0.05
0	587	29.2	0.05
0	589	29.3	0.05
0	591	29.4	0.05
0	593	29.5	0.05
0	594	29.537954392	0.05
0	595	29.6	0.05
0	597	29.7	0.05
0	598	29.763167011	0.05
0	599	29.8	0.05
0	601	29.9	0.05
0	603	30	0.05
0	605	30.1	0.05
0	607	30.2	0.05
0	608	30.249295453	0.05
0	609	30.3	0.05
0	611	30.4	0.05
0	613	30.5	0.05
0	614	30.537574909	0.05
0	615	30.6	0.05
0	617	30.7	0.05
0	619	30.8	0.05
0	621	30.9	0.05
0	623	31	0.05
0	624	31.03506562	0.05
0	625	31.1	0.05
0	627	31.2	0.05
0	629	31.3	0.05
0	631	31.4	0.05
0	633	31.5	0.05
0	634	31.591854544	0.05
0	635	31.6	0.05
0	637	31.7	0.05
0	639	31.8	0.05
0	640	31.884174799	0.05
0	641	31.9	0.05
0	643	32	0.05
0	645	32.1	0.05
0	647	32.142242418878	0.05
0	648	32.2	0.05
0	650	32.3	0.05
0	652	32.4	0.05
0	653	32.476295512	0.05
0	654	32.5	0.05
0	656	32.6	0.0495
0	656	32.6	0.0495
0	658	32.7	0.0499
0	660	32.8	0.05
0	662	32.9	0.05
0	663	32.925107029	0.05
0	664	33	0.05
0	666	33.1	0.05
0	668	33.2	0.05
0	670	33.3	0.05
0	672	33.4	0.05
0	673	33.442091803	0.05
0	674	33.5	0.05
0	676	33.6	0.05
0	678	33.7	0.05
0	680	33.8	0.05
0	681	33.886833907	0.05
0	682	33.9	0.05
0	684	34	0.0495
0	684	34	0.0495
0	686	34.1	0.0499
0	688	34.2	0.05
0	690	34.3	0.05
0	691	34.361460784	0.05
0	692	34.4	0.05
0	694	34.5	0.05
0	696	34.6	0.05
0	697	34.632376441	0.05
0	698	34.7	0.05
0	700	34.8	0.05
0	702	34.9	0.05
0	704	35	0.05
0	705	35.036918785	0.05
0	706	35.1	0.05
0	708	35.2	0.05
0	710	35.3	0.05
0	711	35.307278629	0.05
0	712	35.4	0.05
0	714	35.5	0.05
0	716	35.6	0.05
0	717	35.606535646	0.05
0	718	35.7	0.05
0	720	35.8	0.05
0	722	35.9	0.05
0	724	36	0.05
0	726	36.1	0.05
0	727	36.118902778	0.05
0	728	36.2	0.05
0	730	36.3	0.05
0	732	36.4	0.05
0	734	36.5	0.05
0	735	36.592428865	0.05
0	736	36.6	0.05
0	738	36.7	0.0495
0	738	36.7	0.0495
0	740	36.8	0.0499
0	742	36.9	0.05
0	744	37	0.05
0	745	37.073635723	0.05
0	746	37.1	0.05
0	748	37.2	0.05
0	750	37.3	0.05
0	752	37.4	0.05
0	754	37.5	0.05
0	755	37.566211057	0.05
0	756	37.6	0.05
0	758	37.7	0.05
0	760	37.8	0.05
0	762	37.9	0.05
0	764	38	0.05
0	766	38.1	0.05
0	767	38.16082828	0.05
0	768	38.2	0.05
0	770	38.3	0.05
0	772	38.4	0.05
0	774	38.5	0.05
0	776	38.6	0.05
0	778	38.7	0.05
0	779	38.752387861	0.05
0	780	38.8	0.05
0	782	38.9	0.05
0	784	39	0.05
0	786	39.1	0.05
0	787	39.148648282	0.05
0	788	39.2	0.05
0	790	39.3	0.05
0	792	39.4	0.05
0	794	39.5	0.05
0	795	39.592597798	0.05
0	796	39.6	0.05
0	798	39.7	0.05
0	800	39.8	0.05
0	802	39.9	0.05
0	804	40	0.05
0	805	40.056960949	0.05
0	806	40.1	0.05
0	808	40.2	0.05
0	810	40.3	0.05
0	812	40.4	0.05
0	814	40.5	0.05
0	815	40.516993996	0.05
0	816	40.6	0.05
0	818	40.7	0.05
0	820	40.8	0.05
0	821	40.81641436	0.05
0	822	40.9	0.0495
0	822	40.9	0.0495
0	824	41	0.0499
0	826	41.1	0.05
0	828	41.2	0.05
0	830	41.3	0.05
0	831	41.311966726	0.05
0	832	41.4	0.05
0	834	41.5	0.05
0	836	41.6	0.05
0	837	41.605864102	0.05
0	838	41.7	0.05
0	840	41.8	0.05
0	841	41.890031176	0.05
0	842	41.9	0.05
0	844	42	0.05
0	846	42.1	0.05
0	847	42.173334238	0.05
0	848	42.2	0.0495
0	848	42.2	0.0495
0	850	42.3	0.0499
0	852	42.4	0.05
0	854	42.5	0.05
0	856	42.6	0.05
0	857	42.612918604	0.05
0	858	42.7	0.05
0	860	42.8	0.05
0	861	42.894687124	0.05
0	862	42.9	0.05
0	864	43	0.05
0	866	43.1	0.05
0	868	43.2	0.05
0	870	43.3	0.05
0	871	43.325967145	0.05
0	872	43.4	0.05
0	874	43.5	0.05
0	876	43.6	0.0495
0	876	43.6	0.0495
0	878	43.7	0.0499
0	880	43.8	0.05
0	881	43.810926067	0.05
0	882	43.9	0.05
0	884	44	0.05
0	886	44.1	0.05
0	888	44.2	0.05
0	889	44.20809043	0.05
0	890	44.3	0.05
0	892	44.4	0.05
0	893	44.488657366	0.05
0	894	44.5	0.05
0	896	44.6	0.05
0	898	44.7	0.05
0	900	44.8	0.05
0	902	44.9	0.05
0	904	45	0.0495
0	904	45	0.0495
0	905	45.068770255	0.04977508102
0	906	45.1	0.0499
0	908	45.2	0.05
0	910	45.3	0.05
0	911	45.336468247	0.05
0	912	45.4	0.05
0	914	45.5	0.05
0	916	45.6	0.05
0	918	45.7	0.05
0	920	45.8	0.05
0	921	45.851354893	0.05
0	922	45.9	0.05
0	924	46	0.05
0	926	46.1	0.05
0	928	46.2	0.05
0	930	46.3	0.05
0	931	46.325975461	0.05
0	932	46.4	0.05
0	934	46.5	0.05
0	935	46.584743587	0.05
0	936	46.6	0.05
0	938	46.7	0.05
0	940	46.8	0.05
0	942	46.9	0.05
0	945	47	0.05
0	946	47.074957474	0.05
0	947	47.1	0.05
0	949	47.2	0.05
0	951	47.3	0.05
0	952	47.343289885	0.05
0	953	47.4	0.05
0	955	47.5	0.05
0	957	47.6	0.05
0	959	47.7	0.05
0	961	47.8	0.05
0	962	47.872192774	0.05
0	963	47.9	0.05
0	965	48	0.05
0	967	48.1	0.05
0	969	48.2	0.05
0	970	48.275309215	0.05
0	971	48.3	0.05
0	973	48.4	0.05
0	975	48.5	0.05
0	977	48.6	0.05
0	979	48.7	0.05
0	980	48.72216559	0.05
0	981	48.8	0.05
0	983	48.9	0.05
0	985	49	0.05
0	987	49.1	0.05
0	988	49.173356194	0.05
0	989	49.2	0.05
0	991	49.3	0.05
0	993	49.4	0.05
0	995	49.5	0.05
0	997	49.6	0.05
0	998	49.619275951	0.05
0	999	49.7	0.05
0	1001	49.8	0.05
0	1002	49.864815799	0.05
0	1003	49.9	0.05
0	1005	50	0.05
0	1007	50.1	0.05
0	1009	50.2	0.05
0	1011	50.3	0.05
0	1012	50.326177297	0.0495
0	1012	50.326177297	0.0495
0	1013	50.4	0.049795290812
0	1015	50.5	0.05
0	1016	50.592657322	0.05
0	1017	50.6	0.05
0	1020	50.7	0.05
0	1022	50.8	0.05
0	1024	50.9	0.05
0	1026	51	0.05
0	1028	51.1	0.05
0	1028	51.140396476	0.05
0	1030	51.2	0.05
0	1032	51.3	0.05
0	1034	51.4	0.05
0	1036	51.5	0.05
0	1036	51.568258702	0.05
0	1038	51.6	0.05
0	1040	51.7	0.0495
0	1040	51.7	0.0495
0	1042	51.8	0.0499
0	1044	51.9	0.05
0	1046	52	0.05
0	1047	52.092579982	0.05
0	1048	52.1	0.05
0	1050	52.2	0.05
0	1052	52.3	0.05
0	1054	52.4	0.05
0	1056	52.5	0.05
0	1058	52.6	0.05
0	1058	52.663667203	0.05
0	1060	52.7	0.05
0	1062	52.8	0.05
0	1064	52.9	0.05
0	1066	53	0.05
0	1068	53.1	0.05
0	1069	53.188302079	0.05
0	1070	53.2	0.05
0	1072	53.3	0.05
0	1074	53.4	0.05
0	1076	53.5	0.05
0	1078	53.6	0.05
0	1080	53.7	0.05
0	1080	53.761511173	0.05
0	1082	53.8	0.05
0	1084	53.9	0.05
0	1086	54	0.05
0	1088	54.1	0.05
0	1090	54.2	0.05
0	1090	54.263559655	0.05
0	1092	54.3	0.05
0	1094	54.4	0.05
0	1096	54.5	0.05
0	1098	54.6	0.0495
0	1098	54.6	0.0495
0	1100	54.7	0.0499
0	1100	54.736748458	0.05
0	1102	54.8	0.05
0	1104	54.9	0.05
0	1105	54.994276786	0.05
0	1106	55	0.05
0	1108	55.1	0.05
0	1110	55.2	0.05
0	1112	55.3	0.05
0	1114	55.4	0.05
0	1114	55.402146604	0.05
0	1116	55.5	0.05
0	1118	55.6	0.05
0	1120	55.7	0.05
0	1122	55.8	0.05
0	1122	55.84228183	0.05
0	1124	55.9	0.0495
0	1124	55.9	0.0495
0	1126	56	0.0499
0	1128	56.1	0.05
0	1130	56.2	0.05
0	1132	56.3	0.05
0	1132	56.316502054	0.05
0	1134	56.4	0.05
0	1136	56.5	0.05
0	1138	56.6	0.05
0	1140	56.7	0.05
0	1141	56.769634267061	0.05
0	1142	56.844523144	0.05
0	1143	56.869634267061	0.05
0	1145	56.969634267061	0.05
0	1147	57.069634267061	0.05
0	1149	57.169634267061	0.05
0	1151	57.269634267061	0.05
0	1153	57.369634267061	0.05
0	1154	57.414972109	0.05
0	1155	57.469634267061	0.05
0	1157	57.569634267061	0.05
0	1159	57.669634267061	0.05
0	1161	57.769634267061	0.05
0	1163	57.869634267061	0.05
0	1164	57.887806492	0.05
0	1165	57.969634267061	0.05
0	1167	58.069634267061	0.05
0	1168	58.151021452	0.05
0	1169	58.169634267061	0.05
0	1171	58.269634267061	0.05
0	1173	58.369634267061	0.05
0	1175	58.469634267061	0.05
0	1177	58.569634267061	0.05
0	1179	58.669634267061	0.05
0	1179	58.677681304	0.05
0	1181	58.769634267061	0.05
0	1183	58.869634267061	0.05
0	1184	58.896081865	0.05
0	1185	58.969634267061	0.05
0	1187	59.069634267061	0.05
0	1189	59.169634267061	0.05
0	1191	59.269634267061	0.05
0	1193	59.369634267061	0.05
0	1193	59.383392412	0.05
0	1195	59.469634267061	0.05
0	1197	59.569634267061	0.05
0	1199	59.669634267061	0.05
0	1201	59.769634267061	0.05
0	1203	59.869634267061	0.05
0	1204	59.921925547	0.05
0	1205	59.969634267061	0.05
0	1207	60.069634267061	0.05
0	1209	60.169634267061	0.05
0	1211	60.269634267061	0.05
0	1212	60.3580126	0.05
0	1213	60.369634267061	0.05
0	1215	60.469634267061	0.05
0	1217	60.569634267061	0.05
0	1219	60.669634267061	0.05
0	1221	60.769634267061	0.05
0	1222	60.787821001	0.05
0	1223	60.869634267061	0.05
0	1225	60.969634267061	0.05
0	1226	61.03826803	0.05
0	1227	61.069634267061	0.05
0	1229	61.169634267061	0.05
0	1231	61.269634267061	0.05
0	1232	61.316641474	0.05
0	1233	61.369634267061	0.05
0	1235	61.469634267061	0.05
0	1237	61.569634267061	0.05
0	1239	61.669634267061	0.05
0	1241	61.769634267061	0.05
0	1241	61.777317082	0.05
0	1243	61.869634267061	0.05
0	1245	61.969634267061	0.05
0	1247	62.069634267061	0.05
0	1249	62.169634267061	0.05
0	1251	62.269634267061	0.05
0	1251	62.282394769	0.05
0	1253	62.369634267061	0.05
0	1255	62.469634267061	0.05
0	1257	62.569634267061	0.05
0	1259	62.669634267061	0.05
0	1260	62.707155565	0.05
0	1261	62.769634267061	0.05
0	1263	62.869634267061	0.05
0	1265	62.969634267061	0.05
0	1267	63.069634267061	0.05
0	1269	63.169634267061	0.05
0	1270	63.18535834	0.05
0	1271	63.269634267061	0.05
0	1273	63.369634267061	0.05
0	1275	63.469634267061	0.05
0	1277	63.569634267061	0.05
0	1278	63.639401062	0.05
0	1279	63.669634267061	0.05
0	1281	63.769634267061	0.05
0	1283	63.869634267061	0.05
0	1285	63.969634267061	0.05
0	1287	64.069634267061	0.05
0	1288	64.159375378	0.05
0	1289	64.169634267061	0.05
0	1291	64.269634267061	0.05
0	1293	64.369634267061	0.05
0	1295	64.469634267061	0.05
0	1297	64.569634267061	0.05
0	1298	64.651400686	0.05
0	1299	64.669634267061	0.05
0	1301	64.769634267061	0.05
0	1303	64.869634267061	0.05
0	1305	64.969634267061	0.05
0	1308	65.069634267061	0.05
0	1311	65.169634267061	0.05
0	1312	65.204123404	0.05
0	1314	65.269634267061	0.05
0	1316	65.369634267061	0.05
0	1319	65.469634267061	0.05
0	1322	65.569634267061	0.05
0	1325	65.669634267061	0.05
0	1326	65.726408206	0.05
0	1328	65.769634267061	0.05
0	1330	65.869634267061	0.05
0	1333	65.969634267061	0.05
0	1336	66.069634267061	0.05
0	1339	66.169634267061	0.05
0	1340	66.186170116	0.05
0	1341	66.269634267061	0.05
0	1343	66.369634267061	0.05
0	1345	66.469634267061	0.05
0	1347	66.569634267061	0.05
0	1349	66.669634267061	0.05
0	1349	66.677946862	0.05
0	1351	66.769634267061	0.05
0	1353	66.869634267061	0.05
0	1355	66.969634267061	0.05
0	1357	67.069634267061	0.05
0	1358	67.132198174	0.05
0	1359	67.169634267061	0.05
0	1361	67.269634267061	0.05
0	1363	67.369634267061	0.05
0	1365	67.469634267061	0.05
0	1367	67.569634267061	0.05
0	1368	67.640898295	0.05
0	1369	67.669634267061	0.05
0	1371	67.769634267061	0.05
0	1373	67.869634267061	0.05
0	1374	67.931926297	0.05
0	1375	67.969634267061	0.05
0	1377	68.069634267061	0.05
0	1379	68.169634267061	0.05
0	1381	68.269634267061	0.05
0	1383	68.369634267061	0.05
0	1384	68.407897261	0.05
0	1385	68.469634267061	0.05
0	1387	68.569634267061	0.05
0	1389	68.669634267061	0.05
0	1391	68.769634267061	0.05
0	1392	68.847020341	0.05
0	1393	68.869634267061	0.05
0	1395	68.969634267061	0.05
0	1397	69.069634267061	0.05
0	1399	69.169634267061	0.05
0	1401	69.269634267061	0.05
0	1402	69.286941769	0.05
0	1403	69.369634267061	0.05
0	1405	69.469634267061	0.05
0	1407	69.569634267061	0.05
0	1409	69.669634267061	0.05
0	1410	69.748909531	0.05
0	1411	69.769634267061	0.05
0	1413	69.869634267061	0.05
0	1415	69.969634267061	0.05
0	1417	70.069634267061	0.05
0	1419	70.169634267061	0.05
0	1421	70.269634267061	0.05
0	1423	70.369634267061	0.05
0	1423	70.379762686	0.05
0	1425	70.469634267061	0.05
0	1427	70.569634267061	0.05
0	1429	70.669634267061	0.05
0	1431	70.769634267061	0.05
0	1433	70.869634267061	0.05
0	1435	70.969634267061	0.05
0	1436	71.043694786	0.05
0	1437	71.069634267061	0.05
0	1439	71.169634267061	0.05
0	1441	71.269634267061	0.05
0	1443	71.369634267061	0.05
0	1445	71.469634267061	0.05
0	1446	71.537287894	0.05
0	1447	71.569634267061	0.05
0	1449	71.669634267061	0.05
0	1451	71.769634267061	0.05
0	1453	71.869634267061	0.05
0	1455	71.969634267061	0.05
0	1456	72.027756205	0.05
0	1457	72.069634267061	0.05
0	1459	72.169634267061	0.05
0	1461	72.269634267061	0.05
0	1463	72.369634267061	0.05
0	1465	72.469634267061	0.05
0	1466	72.487215583	0.05
0	1467	72.569634267061	0.05
0	1469	72.669634267061	0.05
0	1471	72.769634267061	0.05
0	1473	72.869634267061	0.05
0	1474	72.89890525	0.05
0	1475	72.969634267061	0.05
0	1477	73.069634267061	0.05
0	1479	73.169634267061	0.05
0	1481	73.269634267061	0.05
0	1482	73.271828095737	0.05
0	1484	73.369634267061	0.05
0	1485	73.388135155	0.05
0	1486	73.469634267061	0.05
0	1488	73.569634267061	0.05
0	1490	73.669634267061	0.0495
0	1490	73.669634267061	0.0495
0	1492	73.769634267061	0.0495
0	1493	73.790193967	0.0495
0	1494	73.869634267061	0.0495
0	1496	73.969634267061	0.0495
0	1497	74.045569783	0.0495
0	1498	74.069634267061	0.0495
0	1500	74.169634267061	0.0495
0	1502	74.269634267061	0.0495
0	1504	74.369634267061	0.0495
0	1506	74.469634267061	0.0495
0	1506	74.478238327	0.0495
0	1508	74.569634267061	0.0495
0	1510	74.669634267061	0.0495
0	1511	74.713122652	0.0495
0	1512	74.769634267061	0.0495
0	1514	74.869634267061	0.0495
0	1515	74.938816312	0.0495
0	1516	74.969634267061	0.0495
0	1518	75.069634267061	0.0495
0	1520	75.169634267061	0.0495
0	1522	75.269634267061	0.0495
0	1523	75.366606463	0.0495
0	1524	75.369634267061	0.0495
0	1526	75.469634267061	0.0495
0	1528	75.569634267061	0.0495
0	1530	75.669634267061	0.0495
0	1532	75.769634267061	0.0495
0	1534	75.869634267061	0.0495
0	1535	75.952938109	0.0495
0	1536	75.969634267061	0.0495
0	1538	76.069634267061	0.0495
0	1540	76.169634267061	0.0495
0	1542	76.269634267061	0.0495
0	1544	76.369634267061	0.049005
0	1544	76.369634267061	0.049005
0	1546	76.469634267061	0.049005
0	1548	76.569634267061	0.049005
0	1548	76.583931367	0.049005
0	1550	76.669634267061	0.049005
0	1552	76.769634267061	0.049005
0	1554	76.869634267061	0.049005
0	1556	76.969634267061	0.049005
0	1557	77.034616093	0.049005
0	1558	77.069634267061	0.049005
0	1560	77.169634267061	0.049005
0	1562	77.269634267061	0.049005
0	1564	77.369634267061	0.049005
0	1566	77.469634267061	0.049005
0	1567	77.506727749	0.049005
0	1568	77.569634267061	0.049005
0	1570	77.669634267061	0.049005
0	1572	77.769634267061	0.04851495
0	1572	77.769634267061	0.04851495
0	1574	77.869634267061	0.04851495
0	1576	77.969634267061	0.04851495
0	1578	78.069634267061	0.04851495
0	1579	78.111869878	0.04851495
0	1580	78.169634267061	0.04851495
0	1582	78.269634267061	0.04851495
0	1584	78.369634267061	0.04851495
0	1586	78.469634267061	0.04851495
0	1588	78.569634267061	0.04851495
0	1588	78.575725633	0.04851495
0	1590	78.669634267061	0.04851495
0	1592	78.769634267061	0.04851495
0	1594	78.869634267061	0.04851495
0	1596	78.969634267061	0.04851495
0	1597	79.027734208	0.04851495
0	1598	79.069634267061	0.04851495
0	1600	79.169634267061	0.0480298005
0	1600	79.169634267061	0.0480298005
0	1602	79.269634267061	0.0480298005
0	1604	79.369634267061	0.0480298005
0	1605	79.423958788	0.0480298005
0	1606	79.469634267061	0.0480298005
0	1608	79.569634267061	0.0480298005
0	1610	79.669634267061	0.0480298005
0	1612	79.769634267061	0.0480298005
0	1614	79.869634267061	0.0480298005
0	1615	79.94336623	0.0480298005
0	1616	79.969634267061	0.0480298005
0	1618	80.069634267061	0.0480298005
0	1620	80.169634267061	0.0480298005
0	1622	80.269634267061	0.0480298005
0	1624	80.369634267061	0.0480298005
0	1626	80.469634267061	0.0480298005
0	1626	80.478091594	0.0480298005
0	1628	80.569634267061	0.047549502495
0	1628	80.569634267061	0.047549502495
0	1630	80.669634267061	0.047549502495
0	1632	80.769634267061	0.047549502495
0	1634	80.869634267061	0.047549502495
0	1635	80.928415198	0.047549502495
0	1636	80.969634267061	0.047549502495
0	1638	81.069634267061	0.047549502495
0	1640	81.169634267061	0.047549502495
0	1642	81.269634267061	0.047549502495
0	1643	81.36344749	0.047549502495
0	1644	81.369634267061	0.047549502495
0	1646	81.469634267061	0.047549502495
0	1648	81.569634267061	0.047549502495
0	1649	81.658101871	0.047549502495
0	1650	81.669634267061	0.047549502495
0	1652	81.769634267061	0.047549502495
0	1654	81.869634267061	0.047549502495
0	1656	81.969634267061	0.04707400747005
0	1656	81.969634267061	0.04707400747005
0	1658	82.069634267061	0.04707400747005
0	1658	82.078758964	0.04707400747005
0	1660	82.169634267061	0.04707400747005
0	1662	82.269634267061	0.04707400747005
0	1663	82.3256029	0.04707400747005
0	1664	82.369634267061	0.04707400747005
0	1666	82.469634267061	0.04707400747005
0	1668	82.569634267061	0.04707400747005
0	1669	82.618006945	0.04707400747005
0	1670	82.669634267061	0.04707400747005
0	1672	82.769634267061	0.04707400747005
0	1674	82.869634267061	0.04707400747005
0	1676	82.969634267061	0.04707400747005
0	1678	83.069634267061	0.04707400747005
0	1679	83.106496843	0.04707400747005
0	1680	83.169634267061	0.04707400747005
0	1682	83.269634267061	0.04660326739535
0	1682	83.269634267061	0.04660326739535
0	1684	83.369634267061	0.04660326739535
0	1686	83.469634267061	0.04660326739535
0	1688	83.569634267061	0.04660326739535
0	1689	83.594743534	0.04660326739535
0	1690	83.669634267061	0.04660326739535
0	1692	83.769634267061	0.04660326739535
0	1694	83.869634267061	0.04660326739535
0	1696	83.969634267061	0.04660326739535
0	1698	84.069634267061	0.04660326739535
0	1698	84.080680447	0.04660326739535
0	1700	84.169634267061	0.04660326739535
0	1702	84.269634267061	0.04660326739535
0	1704	84.369634267061	0.04660326739535
0	1706	84.469634267061	0.04660326739535
0	1707	84.48807193	0.04660326739535
0	1708	84.569634267061	0.04660326739535
0	1710	84.669634267061	0.046137234721396
0	1710	84.669634267061	0.046137234721396
0	1712	84.769634267061	0.046137234721396
0	1714	84.869634267061	0.046137234721396
0	1716	84.969634267061	0.046137234721396
0	1717	85.049755231	0.046137234721396
0	1718	85.069634267061	0.046137234721396
0	1720	85.169634267061	0.046137234721396
0	1722	85.269634267061	0.046137234721396
0	1724	85.369634267061	0.046137234721396
0	1725	85.456289029	0.046137234721396
0	1726	85.469634267061	0.046137234721396
0	1728	85.569634267061	0.046137234721396
0	1730	85.669634267061	0.046137234721396
0	1732	85.769634267061	0.046137234721396
0	1733	85.856219284	0.046137234721396
0	1734	85.869634267061	0.046137234721396
0	1736	85.969634267061	0.046137234721396
0	1738	86.069634267061	0.045675862374182
0	1738	86.069634267061	0.045675862374182
0	1740	86.169634267061	0.045675862374182
0	1742	86.269634267061	0.045675862374182
0	1743	86.315118667	0.045675862374182
0	1744	86.369634267061	0.045675862374182
0	1746	86.469634267061	0.045675862374182
0	1748	86.569634267061	0.045675862374182
0	1749	86.585425333	0.045675862374182
0	1750	86.669634267061	0.045675862374182
0	1752	86.769634267061	0.045675862374182
0	1754	86.869634267061	0.045675862374182
0	1755	86.888841547	0.045675862374182
0	1756	86.969634267061	0.045675862374182
0	1758	87.069634267061	0.045675862374182
0	1760	87.169634267061	0.045675862374182
0	1762	87.269634267061	0.045675862374182
0	1764	87.369634267061	0.045675862374182
0	1765	87.456625096	0.045675862374182
0	1766	87.469634267061	0.045675862374182
0	1768	87.569634267061	0.045675862374182
0	1770	87.669634267061	0.045675862374182
0	1772	87.769634267061	0.045675862374182
0	1774	87.869634267061	0.045675862374182
0	1776	87.969634267061	0.045675862374182
0	1777	88.042326088	0.045675862374182
0	1778	88.069634267061	0.045675862374182
0	1780	88.169634267061	0.045675862374182
0	1782	88.269634267061	0.045675862374182
0	1784	88.369634267061	0.045675862374182
0	1786	88.469634267061	0.045675862374182
0	1787	88.559728204	0.045675862374182
0	1788	88.569634267061	0.045675862374182
0	1790	88.669634267061	0.045675862374182
0	1792	88.769634267061	0.045675862374182
0	1794	88.869634267061	0.04521910375044
0	1794	88.869634267061	0.04521910375044
0	1796	88.969634267061	0.04521910375044
0	1797	89.017178548	0.04521910375044
0	1798	89.069634267061	0.04521910375044
0	1800	89.169634267061	0.04521910375044
0	1802	89.269634267061	0.04521910375044
0	1804	89.369634267061	0.04521910375044
0	1805	89.406605518	0.04521910375044
0	1806	89.469634267061	0.04521910375044
0	1808	89.569634267061	0.04521910375044
0	1810	89.669634267061	0.04521910375044
0	1812	89.769634267061	0.04521910375044
0	1813	89.865537571	0.04521910375044
0	1814	89.869634267061	0.04521910375044
0	1816	89.969634267061	0.04521910375044
0	1818	90.069634267061	0.04521910375044
0	1820	90.169634267061	0.04521910375044
0	1822	90.269634267061	0.044766912712936
0	1822	90.269634267061	0.044766912712936
0	1823	90.305044867	0.044766912712936
0	1824	90.369634267061	0.044766912712936
0	1826	90.469634267061	0.044766912712936
0	1828	90.569634267061	0.044766912712936
0	1830	90.669634267061	0.044766912712936
0	1831	90.745247878	0.044766912712936
0	1832	90.769634267061	0.044766912712936
0	1834	90.869634267061	0.044766912712936
0	1836	90.969634267061	0.044766912712936
0	1838	91.069634267061	0.044766912712936
0	1840	91.169634267061	0.044766912712936
0	1842	91.269634267061	0.044766912712936
0	1842	91.277946685	0.044766912712936
0	1844	91.369634267061	0.044766912712936
0	1846	91.469634267061	0.044766912712936
0	1848	91.569634267061	0.044766912712936
0	1850	91.669634267061	0.044319243585806
0	1850	91.669634267061	0.044319243585806
0	1851	91.737855826	0.044319243585806
0	1852	91.769634267061	0.044319243585806
0	1854	91.869634267061	0.044319243585806
0	1856	91.969634267061	0.044319243585806
0	1857	92.019270871	0.044319243585806
0	1858	92.069634267061	0.044319243585806
0	1860	92.169634267061	0.044319243585806
0	1862	92.269634267061	0.044319243585806
0	1864	92.369634267061	0.044319243585806
0	1865	92.433574858	0.044319243585806
0	1866	92.469634267061	0.044319243585806
0	1868	92.569634267061	0.044319243585806
0	1870	92.669634267061	0.044319243585806
0	1872	92.769634267061	0.044319243585806
0	1873	92.843271556	0.044319243585806
0	1874	92.869634267061	0.044319243585806
0	1876	92.969634267061	0.043876051149948
0	1876	92.969634267061	0.043876051149948
0	1878	93.069634267061	0.043876051149948
0	1880	93.169634267061	0.043876051149948
0	1882	93.269634267061	0.043876051149948
0	1883	93.289298341	0.043876051149948
0	1884	93.369634267061	0.043876051149948
0	1886	93.469634267061	0.043876051149948
0	1888	93.569634267061	0.043876051149948
0	1888	93.580949152	0.043876051149948
0	1890	93.669634267061	0.043876051149948
0	1892	93.769634267061	0.043876051149948
0	1893	93.856444006	0.043876051149948
0	1894	93.869634267061	0.043876051149948
0	1896	93.969634267061	0.043876051149948
0	1898	94.069634267061	0.043876051149948
0	1900	94.169634267061	0.043876051149948
0	1902	94.269634267061	0.043876051149948
0	1902	94.275811252	0.043437290638449
0	1902	94.275811252	0.043437290638449
0	1904	94.369634267061	0.043437290638449
0	1906	94.469634267061	0.043437290638449
0	1908	94.569634267061	0.043437290638449
0	1910	94.669634267061	0.043437290638449
0	1911	94.733349013	0.043437290638449
0	1912	94.769634267061	0.043437290638449
0	1914	94.869634267061	0.043437290638449
0	1916	94.969634267061	0.043437290638449
0	1918	95.069634267061	0.043437290638449
0	1920	95.169634267061	0.043437290638449
0	1921	95.213430928	0.043437290638449
0	1922	95.269634267061	0.043437290638449
0	1924	95.369634267061	0.043437290638449
0	1926	95.469634267061	0.043437290638449
0	1928	95.569634267061	0.043437290638449
0	1929	95.66152879	0.043437290638449
0	1930	95.669634267061	0.043002917732064
0	1930	95.669634267061	0.043002917732064
0	1932	95.769634267061	0.043002917732064
0	1934	95.869634267061	0.043002917732064
0	1935	95.929102786	0.043002917732064
0	1936	95.969634267061	0.043002917732064
0	1938	96.069634267061	0.043002917732064
0	1940	96.169634267061	0.043002917732064
0	1942	96.269634267061	0.043002917732064
0	1944	96.369634267061	0.043002917732064
0	1945	96.416894443	0.043002917732064
0	1946	96.469634267061	0.043002917732064
0	1948	96.569634267061	0.043002917732064
0	1950	96.669634267061	0.043002917732064
0	1951	96.708537847	0.043002917732064
0	1952	96.769634267061	0.043002917732064
0	1954	96.869634267061	0.043002917732064
0	1956	96.969634267061	0.043002917732064
0	1958	97.069634267061	0.042572888554744
0	1958	97.069634267061	0.042572888554744
0	1959	97.144627504	0.042572888554744
0	1960	97.169634267061	0.042572888554744
0	1962	97.269634267061	0.042572888554744
0	1964	97.369634267061	0.042572888554744
0	1966	97.469634267061	0.042572888554744
0	1968	97.569634267061	0.042572888554744
0	1969	97.606377316	0.042572888554744
0	1970	97.669634267061	0.042572888554744
0	1972	97.769634267061	0.042572888554744
0	1974	97.869634267061	0.042572888554744
0	1976	97.969634267061	0.042572888554744
0	1978	98.069634267061	0.042572888554744
0	1979	98.102480326	0.042572888554744
0	1980	98.169634267061	0.042572888554744
0	1982	98.269634267061	0.042572888554744
0	1984	98.369634267061	0.042572888554744
0	1985	98.394476284	0.042572888554744
0	1986	98.469634267061	0.042572888554744
0	1988	98.569634267061	0.042572888554744
0	1990	98.669634267061	0.042572888554744
0	1992	98.769634267061	0.042572888554744
0	1994	98.869634267061	0.042572888554744
0	1995	98.888800933	0.042572888554744
0	1996	98.969634267061	0.042572888554744
0	1998	99.069634267061	0.042572888554744
0	2000	99.169634267061	0.042572888554744
0	2002	99.269634267061	0.042572888554744
0	2003	99.308368321	0.042572888554744
0	2004	99.369634267061	0.042572888554744
0	2006	99.469634267061	0.042572888554744
0	2008	99.569634267061	0.042572888554744
0	2010	99.669634267061	0.042572888554744
0	2012	99.769634267061	0.042572888554744
0	2013	99.810983704	0.042572888554744
0	2014	99.869634267061	0.042572888554744
0	2016	99.969634267061	0.042572888554744
0	2018	100.069634267061	0.042572888554744
0	2020	100.169634267061	0.042572888554744
0	2022	100.269634267061	0.042572888554744
0	2023	100.308602467	0.042572888554744
0	2024	100.369634267061	0.042572888554744
0	2026	100.469634267061	0.042572888554744
0	2028	100.569634267061	0.042572888554744
0	2028	100.576556179	0.042572888554744
0	2030	100.669634267061	0.042572888554744
0	2032	100.769634267061	0.042572888554744
0	2033	100.868223088	0.042572888554744
0	2034	100.869634267061	0.042572888554744
0	2036	100.969634267061	0.042572888554744
0	2038	101.069634267061	0.042572888554744
0	2039	101.126985697	0.042572888554744
0	2040	101.169634267061	0.042572888554744
0	2042	101.269634267061	0.042572888554744
0	2044	101.369634267061	0.042572888554744
0	2046	101.450393410662	0.042572888554744
0	2048	101.550393410662	0.042572888554744
0	2049	101.611605346	0.042572888554744
0	2050	101.650393410662	0.042572888554744
0	2052	101.750393410662	0.042572888554744
0	2054	101.850393410662	0.042572888554744
0	2055	101.904044425	0.042572888554744
0	2056	101.950393410662	0.042572888554744
0	2058	102.050393410662	0.042572888554744
0	2060	102.150393410662	0.042572888554744
0	2062	102.250393410662	0.042572888554744
0	2064	102.350393410662	0.042572888554744
0	2065	102.413233786	0.042572888554744
0	2066	102.450393410662	0.042147159669196
0	2066	102.450393410662	0.042147159669196
0	2068	102.550393410662	0.042147159669196
0	2070	102.650393410662	0.042147159669196
0	2072	102.750393410662	0.042147159669196
0	2074	102.850393410662	0.042147159669196
0	2075	102.891856147	0.042147159669196
0	2076	102.950393410662	0.042147159669196
0	2078	103.050393410662	0.042147159669196
0	2080	103.150393410662	0.042147159669196
0	2082	103.250393410662	0.042147159669196
0	2084	103.350393410662	0.042147159669196
0	2085	103.428350569	0.042147159669196
0	2086	103.450393410662	0.042147159669196
0	2088	103.550393410662	0.042147159669196
0	2090	103.650393410662	0.042147159669196
0	2092	103.750393410662	0.042147159669196
0	2094	103.850393410662	0.042147159669196
0	2096	103.950393410662	0.041725688072504
0	2096	103.950393410662	0.041725688072504
0	2096	103.968391669	0.041725688072504
0	2098	104.050393410662	0.041725688072504
0	2100	104.150393410662	0.041725688072504
0	2102	104.250393410662	0.041725688072504
0	2104	104.350393410662	0.041725688072504
0	2106	104.450393410662	0.041725688072504
0	2108	104.550393410662	0.041725688072504
0	2109	104.609671069	0.041725688072504
0	2110	104.650393410662	0.041725688072504
0	2112	104.750393410662	0.041725688072504
0	2114	104.850393410662	0.041725688072504
0	2116	104.950393410662	0.041725688072504
0	2118	105.050393410662	0.041725688072504
0	2120	105.150393410662	0.041725688072504
0	2122	105.250393410662	0.041725688072504
0	2124	105.350393410662	0.041725688072504
0	2126	105.450393410662	0.041308431191779
0	2126	105.450393410662	0.041308431191779
0	2127	105.489531376	0.041308431191779
0	2128	105.550393410662	0.041308431191779
0	2130	105.650393410662	0.041308431191779
0	2132	105.750393410662	0.041308431191779
0	2133	105.772978325205	0.041308431191779
0	2135	105.82087052726	0.0415
0	2136	105.850393410662	0.041618091533608
0	2138	105.94587052726	0.042
0	2139	105.950393410662	0.042018091533608
0	2140	106.004414005	0.04223417391096
0	2141	106.050393410662	0.042418091533608
0	2142	106.07087052726	0.0425
0	2144	106.150393410662	0.042818091533608
0	2146	106.19587052726	0.043
0	2147	106.250393410662	0.043218091533608
0	2149	106.32087052726	0.0435
0	2150	106.350393410662	0.043618091533608
0	2152	106.44587052726	0.044
0	2153	106.450393410662	0.044018091533608
0	2154	106.503165982	0.04378689000077
0	2154	106.503165982	0.04378689000077
0	2155	106.550393410662	0.043975799715418
0	2156	106.57087052726	0.0445
0	2158	106.650393410662	0.044818091533608
0	2160	106.69587052726	0.045
0	2161	106.750393410662	0.045218091533608
0	2163	106.82087052726	0.0455
0	2164	106.850393410662	0.045618091533608
0	2166	106.94587052726	0.046
0	2167	106.950393410662	0.046018091533608
0	2168	107.028128227	0.04632903079896
0	2169	107.050393410662	0.046418091533608
0	2170	107.07087052726	0.0465
0	2172	107.150393410662	0.046818091533608
0	2174	107.19587052726	0.047
0	2175	107.250393410662	0.047218091533608
0	2177	107.32087052726	0.0475
0	2178	107.350393410662	0.047618091533608
0	2180	107.44587052726	0.048
0	2181	107.450393410662	0.048018091533608
0	2183	107.550393410662	0.048418091533608
0	2184	107.57087052726	0.0485
0	2185	107.626371589	0.04872200424696
0	2186	107.650393410662	0.048818091533608
0	2188	107.69587052726	0.049
0	2189	107.750393410662	0.049218091533608
0	2191	107.82087052726	0.0495
0	2192	107.850393410662	0.049618091533608
0	2194	107.94587052726	0.05
0	2195	107.950393410662	0.05
0	2197	108.050393410662	0.05
0	2198	108.114060361	0.05
0	2199	108.150393410662	0.05
0	2201	108.250393410662	0.05
0	2203	108.350393410662	0.05
0	2205	108.450393410662	0.05
0	2207	108.550393410662	0.05
0	2207	108.573799699	0.05
0	2209	108.650393410662	0.05
0	2211	108.750393410662	0.05
0	2212	108.797784634	0.0495
0	2212	108.797784634	0.0495
0	2213	108.850393410662	0.049710435106648
0	2215	108.950393410662	0.05
0	2217	109.050393410662	0.05
0	2219	109.150393410662	0.05
0	2220	109.21580218	0.05
0	2221	109.250393410662	0.05
0	2223	109.343390837226	0.05
0	2225	109.443390837226	0.05
0	2227	109.543390837226	0.05
0	2229	109.643390837226	0.05
0	2229	109.68155602	0.05
0	2231	109.743390837226	0.05
0	2233	109.843390837226	0.05
0	2235	109.943390837226	0.05
0	2237	110.043390837226	0.05
0	2239	110.143390837226	0.05
0	2240	110.227140082	0.0495
0	2240	110.227140082	0.0495
0	2241	110.243390837226	0.049565003020904
0	2243	110.343390837226	0.049965003020904
0	2245	110.443390837226	0.05
0	2247	110.543390837226	0.05
0	2249	110.643390837226	0.05
0	2251	110.743390837226	0.05
0	2252	110.757190534	0.05
0	2253	110.843390837226	0.05
0	2255	110.943390837226	0.05
0	2257	111.043390837226	0.05
0	2259	111.143390837226	0.05
0	2260	111.188917294	0.05
0	2261	111.243390837226	0.05
0	2263	111.343390837226	0.05
0	2265	111.443390837226	0.05
0	2267	111.543390837226	0.05
0	2269	111.643390837226	0.05
0	2270	111.701404033	0.05
0	2271	111.743390837226	0.05
0	2273	111.843390837226	0.05
0	2275	111.943390837226	0.05
0	2277	112.043390837226	0.05
0	2279	112.143390837226	0.05
0	2281	112.243390837226	0.05
0	2282	112.254671101	0.05
0	2283	112.343390837226	0.05
0	2285	112.443390837226	0.05
0	2287	112.543390837226	0.05
0	2289	112.643390837226	0.05
0	2290	112.72171411	0.05
0	2291	112.743390837226	0.05
0	2293	112.843390837226	0.05
0	2295	112.943390837226	0.05
0	2297	113.043390837226	0.05
0	2299	113.143390837226	0.05
0	2300	113.192115106	0.05
0	2302	113.243390837226	0.05
0	2304	113.343390837226	0.05
0	2306	113.443390837226	0.05
0	2308	113.543390837226	0.05
0	2309	113.611720153	0.05
0	2310	113.643390837226	0.05
0	2312	113.743390837226	0.05
0	2314	113.843390837226	0.05
0	2316	113.943390837226	0.05
0	2318	114.043390837226	0.05
0	2319	114.115913983	0.05
0	2320	114.143390837226	0.05
0	2322	114.243390837226	0.05
0	2324	114.343390837226	0.05
0	2326	114.443390837226	0.0495
0	2326	114.443390837226	0.0495
0	2328	114.543390837226	0.0499
0	2329	114.583149952	0.05
0	2330	114.643390837226	0.05
0	2332	114.743390837226	0.05
0	2333	114.840178969	0.05
0	2334	114.843390837226	0.05
0	2336	114.943390837226	0.05
0	2338	115.043390837226	0.05
0	2340	115.143390837226	0.05
0	2342	115.243390837226	0.05
0	2343	115.270519564	0.05
0	2344	115.343390837226	0.05
0	2346	115.443390837226	0.05
0	2348	115.543390837226	0.05
0	2350	115.643390837226	0.05
0	2352	115.743390837226	0.05
0	2353	115.805696854	0.05
0	2354	115.843390837226	0.05
0	2356	115.943390837226	0.05
0	2358	116.043390837226	0.05
0	2360	116.143390837226	0.05
0	2362	116.243390837226	0.05
0	2364	116.343390837226	0.05
0	2365	116.382047419	0.05
0	2366	116.443390837226	0.05
0	2368	116.543390837226	0.05
0	2370	116.643390837226	0.05
0	2372	116.743390837226	0.05
0	2374	116.843390837226	0.05
0	2375	116.866898026	0.05
0	2376	116.943390837226	0.05
0	2378	117.043390837226	0.05
0	2379	117.118672795	0.05
0	2380	117.143390837226	0.0495
0	2380	117.143390837226	0.0495
0	2382	117.243390837226	0.0499
0	2384	117.343390837226	0.05
0	2386	117.443390837226	0.05
0	2388	117.541047646969	0.05
0	2389	117.575806207	0.05
0	2390	117.641047646969	0.05
0	2392	117.741047646969	0.05
0	2394	117.841047646969	0.05
0	2395	117.872958163	0.05
0	2396	117.941047646969	0.05
0	2398	118.041047646969	0.05
0	2400	118.141047646969	0.05
0	2402	118.241047646969	0.05
0	2404	118.341047646969	0.05
0	2405	118.402868281	0.05
0	2406	118.441047646969	0.05
0	2408	118.541047646969	0.0495
0	2408	118.541047646969	0.0495
0	2410	118.641047646969	0.0499
0	2412	118.741047646969	0.05
0	2414	118.841047646969	0.05
0	2415	118.86053041	0.05
0	2416	118.941047646969	0.05
0	2418	119.041047646969	0.05
0	2420	119.141047646969	0.05
0	2422	119.241047646969	0.05
0	2424	119.341047646969	0.05
0	2426	119.441047646969	0.05
0	2427	119.472560659	0.05
0	2428	119.541047646969	0.05
0	2430	119.641047646969	0.05
0	2432	119.741047646969	0.05
0	2434	119.841047646969	0.05
0	2436	119.941047646969	0.05
0	2437	119.96123533	0.05
0	2438	120.041047646969	0.05
0	2440	120.141047646969	0.05
0	2442	120.241047646969	0.05
0	2443	120.254056435	0.05
0	2444	120.341047646969	0.05
0	2446	120.441047646969	0.05
0	2448	120.541047646969	0.05
0	2448	120.548287099	0.05
0	2450	120.641047646969	0.05
0	2452	120.741047646969	0.05
0	2454	120.841047646969	0.05
0	2456	120.941047646969	0.05
0	2457	120.97189315	0.05
0	2458	121.041047646969	0.05
0	2460	121.141047646969	0.05
0	2462	121.241047646969	0.05
0	2464	121.341047646969	0.0495
0	2464	121.341047646969	0.0495
0	2465	121.366124998	0.049600309404124
0	2466	121.441047646969	0.0499
0	2468	121.541047646969	0.05
0	2470	121.641047646969	0.05
0	2472	121.741047646969	0.05
0	2474	121.841047646969	0.05
0	2475	121.86570799	0.05
0	2476	121.941047646969	0.05
0	2478	122.041047646969	0.05
0	2480	122.141047646969	0.05
0	2482	122.241047646969	0.05
0	2483	122.305228354	0.05
0	2484	122.341047646969	0.05
0	2486	122.441047646969	0.05
0	2488	122.541047646969	0.05
0	2490	122.641047646969	0.05
0	2492	122.741047646969	0.0495
0	2492	122.741047646969	0.0495
0	2493	122.801238808	0.049740764644124
0	2494	122.841047646969	0.0499
0	2496	122.941047646969	0.05
0	2498	123.041047646969	0.05
0	2500	123.141047646969	0.05
0	2502	123.241047646969	0.05
0	2504	123.341047646969	0.05
0	2506	123.441047646969	0.05
0	2507	123.492325018	0.05
0	2508	123.541047646969	0.05
0	2510	123.641047646969	0.05
0	2512	123.741047646969	0.05
0	2514	123.841047646969	0.05
0	2516	123.941047646969	0.05
0	2518	124.041047646969	0.05
0	2519	124.066113847	0.05
0	2520	124.141047646969	0.0495
0	2520	124.141047646969	0.0495
0	2522	124.241047646969	0.0499
0	2524	124.341047646969	0.05
0	2526	124.441047646969	0.05
0	2528	124.541047646969	0.05
0	2529	124.637876236	0.05
0	2530	124.641047646969	0.05
0	2532	124.741047646969	0.05
0	2534	124.841047646969	0.05
0	2536	124.941047646969	0.05
0	2538	125.041047646969	0.05
0	2539	125.087828254	0.05
0	2540	125.141047646969	0.05
0	2542	125.241047646969	0.05
0	2543	125.322872212	0.05
0	2544	125.341047646969	0.05
0	2546	125.441047646969	0.05
0	2548	125.541047646969	0.0495
0	2548	125.541047646969	0.0495
0	2550	125.641047646969	0.0499
0	2552	125.741047646969	0.05
0	2553	125.829570772	0.05
0	2554	125.841047646969	0.05
0	2556	125.875220751174	0.05
0	2558	125.975220751174	0.05
0	2560	126.075220751174	0.05
0	2562	126.175220751174	0.05
0	2564	126.275220751174	0.05
0	2565	126.372319141	0.05
0	2566	126.375220751174	0.05
0	2568	126.475220751174	0.05
0	2570	126.575220751174	0.05
0	2572	126.675220751174	0.05
0	2574	126.775220751174	0.05
0	2575	126.853199548	0.05
0	2576	126.875220751174	0.0495
0	2576	126.875220751174	0.0495
0	2578	126.975220751174	0.0499
0	2580	127.075220751174	0.05
0	2582	127.175220751174	0.05
0	2584	127.275220751174	0.05
0	2584	127.327322446	0.05
0	2586	127.375220751174	0.05
0	2588	127.475220751174	0.05
0	2590	127.575220751174	0.05
0	2592	127.675220751174	0.05
0	2594	127.775220751174	0.05
0	2594	127.803062005	0.05
0	2596	127.875220751174	0.05
0	2598	127.975220751174	0.05
0	2600	128.075220751174	0.05
0	2602	128.175220751174	0.05
0	2603	128.256581869	0.05
0	2604	128.275220751174	0.0495
0	2604	128.275220751174	0.0495
0	2606	128.375220751174	0.0499
0	2608	128.475220751174	0.05
0	2610	128.575220751174	0.05
0	2612	128.675220751174	0.05
0	2614	128.775220751174	0.05
0	2614	128.793379567	0.05
0	2616	128.875220751174	0.05
0	2618	128.975220751174	0.05
0	2620	129.075220751174	0.05
0	2622	129.175220751174	0.05
0	2624	129.275220751174	0.05
0	2624	129.30452731	0.05
0	2626	129.375220751174	0.05
0	2628	129.475220751174	0.05
0	2630	129.575220751174	0.05
0	2632	129.675220751174	0.05
0	2632	129.720270043	0.0495
0	2632	129.720270043	0.0495
0	2634	129.775220751174	0.049719802832696
0	2636	129.875220751174	0.05
0	2638	129.975220751174	0.05
0	2640	130.075220751174	0.05
0	2642	130.175220751174	0.05
0	2642	130.240252162	0.05
0	2644	130.275220751174	0.05
0	2646	130.375220751174	0.05
0	2648	130.475220751174	0.05
0	2650	130.575220751174	0.05
0	2652	130.675220751174	0.05
0	2654	130.775220751174	0.05
0	2656	130.875220751174	0.05
0	2658	130.975220751174	0.05
0	2660	131.075220751174	0.05
0	2660	131.082704098	0.05
0	2662	131.175220751174	0.0495
0	2662	131.175220751174	0.0495
0	2664	131.275220751174	0.0499
0	2666	131.375220751174	0.05
0	2668	131.475220751174	0.05
0	2668	131.52617815	0.05
0	2670	131.575220751174	0.05
0	2672	131.675220751174	0.05
0	2674	131.775220751174	0.05
0	2676	131.875220751174	0.05
0	2678	131.975220751174	0.05
0	2678	132.032644792	0.05
0	2680	132.075220751174	0.05
0	2682	132.175220751174	0.05
0	2684	132.275220751174	0.05
0	2686	132.375220751174	0.05
0	2688	132.475220751174	0.05
0	2688	132.497980942	0.05
0	2690	132.575220751174	0.0495
0	2690	132.575220751174	0.0495
0	2692	132.675220751174	0.0499
0	2694	132.775220751174	0.05
0	2696	132.875220751174	0.05
0	2696	132.928074781	0.05
0	2698	132.975220751174	0.05
0	2700	133.075220751174	0.05
0	2702	133.175220751174	0.05
0	2703	133.178711381882	0.05
0	2703	133.206512941	0.05
0	2705	133.275220751174	0.05
0	2707	133.375220751174	0.05
0	2709	133.475220751174	0.05
0	2711	133.575220751174	0.05
0	2713	133.675220751174	0.05
0	2714	133.775209555	0.05
0	2715	133.775220751174	0.05
0	2717	133.875220751174	0.05
0	2719	133.969224685155	0.05
0	2721	134.069224685155	0.05
0	2723	134.169224685155	0.05
0	2725	134.269224685155	0.05
0	2725	134.281405033	0.05
0	2727	134.369224685155	0.05
0	2729	134.469224685155	0.05
0	2731	134.569224685155	0.05
0	2733	134.669224685155	0.05
0	2735	134.769224685155	0.05
0	2737	134.869224685155	0.05
0	2737	134.904771562	0.05
0	2739	134.969224685155	0.05
0	2741	135.069224685155	0.05
0	2743	135.169224685155	0.05
0	2745	135.269224685155	0.05
0	2745	135.328125199	0.05
0	2747	135.369224685155	0.05
0	2749	135.469224685155	0.05
0	2750	135.562293496	0.05
0	2751	135.569224685155	0.05
0	2753	135.669224685155	0.05
0	2755	135.769224685155	0.05
0	2757	135.869224685155	0.05
0	2759	135.969224685155	0.05
0	2759	135.998084896	0.05
0	2761	136.069224685155	0.05
0	2763	136.169224685155	0.05
0	2765	136.269224685155	0.05
0	2767	136.369224685155	0.05
0	2769	136.469224685155	0.05
0	2769	136.489200757	0.05
0	2771	136.569224685155	0.05
0	2773	136.669224685155	0.05
0	2775	136.769224685155	0.05
0	2775	136.786578478	0.05
0	2777	136.869224685155	0.05
0	2779	136.969224685155	0.05
0	2779	137.036520673	0.05
0	2781	137.069224685155	0.05
0	2783	137.169224685155	0.05
0	2785	137.269224685155	0.05
0	2787	137.369224685155	0.05
0	2789	137.469224685155	0.05
0	2791	137.569224685155	0.05
0	2791	137.597741041	0.05
0	2793	137.669224685155	0.05
0	2795	137.769224685155	0.05
0	2796	137.785875930762	0.05
0	2799	137.885875930762	0.05
0	2801	137.985875930762	0.05
0	2803	138.085875930762	0.0495
0	2803	138.085875930762	0.0495
0	2805	138.185875930762	0.0495
0	2807	138.285875930762	0.0495
0	2807	138.348950737	0.0495
0	2809	138.385875930762	0.0495
0	2811	138.485875930762	0.0495
0	2813	138.585875930762	0.0495
0	2815	138.685875930762	0.0495
0	2817	138.785875930762	0.0495
0	2819	138.885875930762	0.0495
0	2819	138.893859781	0.0495
0	2821	138.985875930762	0.0495
0	2823	139.085875930762	0.0495
0	2825	139.185875930762	0.0495
0	2827	139.285875930762	0.0495
0	2829	139.385875930762	0.0495
0	2829	139.396529926	0.0495
0	2831	139.485875930762	0.049005
0	2831	139.485875930762	0.049005
0	2833	139.585875930762	0.049005
0	2835	139.685875930762	0.049005
0	2837	139.785875930762	0.049005
0	2837	139.806050452	0.049005
0	2839	139.885875930762	0.049005
0	2841	139.985875930762	0.049005
0	2843	140.085875930762	0.049005
0	2845	140.185875930762	0.049005
0	2847	140.285875930762	0.049005
0	2849	140.385875930762	0.049005
0	2850	140.454943276	0.049005
0	2851	140.485875930762	0.049005
0	2853	140.585875930762	0.049005
0	2855	140.685875930762	0.049005
0	2857	140.785875930762	0.049005
0	2859	140.885875930762	0.049005
0	2861	140.985875930762	0.04851495
0	2861	140.985875930762	0.04851495
0	2861	141.026369932	0.04851495
0	2863	141.085875930762	0.04851495
0	2865	141.185875930762	0.04851495
0	2867	141.285875930762	0.04851495
0	2869	141.385875930762	0.04851495
0	2870	141.441840724332	0.04851495
0	2872	141.485875930762	0.04869109082572
0	2874	141.563103224332	0.049
0	2875	141.585875930762	0.04909109082572
0	2875	141.649465729	0.049345450018672
0	2877	141.685875930762	0.04949109082572
0	2878	141.688103224332	0.0495
0	2880	141.785875930762	0.04989109082572
0	2881	141.813103224332	0.05
0	2883	141.885875930762	0.05
0	2885	141.985875930762	0.05
0	2887	142.085875930762	0.05
0	2889	142.185875930762	0.05
0	2891	142.285875930762	0.0495
0	2891	142.285875930762	0.0495
0	2891	142.30525927	0.049577533356952
0	2893	142.385875930762	0.0499
0	2895	142.485875930762	0.05
0	2897	142.585875930762	0.05
0	2899	142.685875930762	0.05
0	2899	142.740782149	0.05
0	2901	142.785875930762	0.05
0	2903	142.885875930762	0.05
0	2905	142.985875930762	0.05
0	2907	143.085875930762	0.05
0	2908	143.15891965	0.05
0	2909	143.185875930762	0.05
0	2911	143.285875930762	0.05
0	2913	143.385875930762	0.05
0	2915	143.485875930762	0.05
0	2917	143.585875930762	0.05
0	2918	143.657623621	0.05
0	2919	143.685875930762	0.05
0	2921	143.785875930762	0.05
0	2923	143.885875930762	0.05
0	2925	143.985875930762	0.05
0	2927	144.085875930762	0.05
0	2927	144.122026471	0.05
0	2929	144.185875930762	0.05
0	2931	144.285875930762	0.05
0	2933	144.385875930762	0.05
0	2933	144.402476572	0.05
0	2935	144.485875930762	0.05
0	2937	144.585875930762	0.05
0	2939	144.685875930762	0.05
0	2940	144.78257734	0.05
0	2941	144.785875930762	0.05
0	2943	144.885875930762	0.05
0	2945	144.985875930762	0.0495
0	2945	144.985875930762	0.0495
0	2945	145.021501708	0.049642503108952
0	2947	145.085875930762	0.0499
0	2949	145.185875930762	0.05
0	2950	145.280633362	0.05
0	2951	145.285875930762	0.05
0	2953	145.385875930762	0.05
0	2955	145.485875930762	0.05
0	2957	145.585875930762	0.05
0	2959	145.685875930762	0.05
0	2960	145.76607202	0.05
0	2961	145.785875930762	0.05
0	2963	145.885875930762	0.05
0	2965	145.985875930762	0.05
0	2967	146.085875930762	0.05
0	2969	146.185875930762	0.05
0	2969	146.188320712	0.05
0	2971	146.285875930762	0.0495
0	2971	146.285875930762	0.0495
0	2973	146.385875930762	0.0499
0	2974	146.483862004	0.05
0	2975	146.485875930762	0.05
0	2977	146.585875930762	0.05
0	2979	146.685875930762	0.05
0	2981	146.785875930762	0.05
0	2983	146.885875930762	0.05
0	2983	146.92203334	0.05
0	2985	146.985875930762	0.05
0	2987	147.085875930762	0.05
0	2989	147.185875930762	0.05
0	2991	147.285875930762	0.05
0	2992	147.367454362	0.05
0	2993	147.385875930762	0.05
0	2995	147.485875930762	0.05
0	2997	147.585875930762	0.05
0	2997	147.621727801	0.0495
0	2997	147.621727801	0.0495
0	2999	147.685875930762	0.049756592519048
0	3001	147.785875930762	0.05
0	3003	147.885875930762	0.05
0	3005	147.985875930762	0.05
0	3007	148.085875930762	0.05
0	3009	148.185875930762	0.05
0	3009	148.193227237	0.05
0	3011	148.285875930762	0.05
0	3013	148.385875930762	0.05
0	3015	148.485875930762	0.05
0	3017	148.585875930762	0.05
0	3018	148.659565336	0.05
0	3019	148.685875930762	0.05
0	3021	148.785875930762	0.05
0	3023	148.885875930762	0.05
0	3025	148.985875930762	0.05
0	3027	149.085875930762	0.0495
0	3027	149.085875930762	0.0495
0	3027	149.142699061	0.049727292520952
0	3029	149.185875930762	0.0499
0	3031	149.285875930762	0.05
0	3033	149.385875930762	0.05
0	3033	149.407264585	0.05
0	3035	149.485875930762	0.05
0	3037	149.585875930762	0.05
0	3039	149.685875930762	0.05
0	3041	149.785875930762	0.05
0	3043	149.885875930762	0.05
0	3043	149.947831372	0.05
0	3045	149.985875930762	0.05
0	3047	150.085875930762	0.05
0	3049	150.185875930762	0.05
0	3049	150.232989958	0.05
0	3051	150.285875930762	0.05
0	3053	150.385875930762	0.0495
0	3053	150.385875930762	0.0495
0	3055	150.485875930762	0.0499
0	3057	150.585875930762	0.05
0	3059	150.685875930762	0.05
0	3059	150.702058885	0.05
0	3061	150.785875930762	0.05
0	3063	150.885875930762	0.05
0	3065	150.985875930762	0.05
0	3065	150.994771141	0.05
0	3067	151.085875930762	0.05
0	3069	151.185875930762	0.05
0	3071	151.285875930762	0.05
0	3073	151.385875930762	0.05
0	3073	151.395359296	0.05
0	3075	151.485875930762	0.05
0	3077	151.585875930762	0.05
0	3078	151.656809386	0.05
0	3079	151.685875930762	0.0495
0	3079	151.685875930762	0.0495
0	3081	151.785875930762	0.0499
0	3083	151.885875930762	0.05
0	3085	151.985875930762	0.05
0	3087	152.085875930762	0.05
0	3087	152.100738106	0.05
0	3089	152.185875930762	0.05
0	3091	152.285875930762	0.05
0	3093	152.385875930762	0.05
0	3095	152.485875930762	0.05
0	3097	152.585875930762	0.05
0	3097	152.621429017	0.05
0	3099	152.685875930762	0.05
0	3101	152.785875930762	0.05
0	3103	152.885875930762	0.05
0	3105	152.985875930762	0.05
0	3106	153.057454696	0.05
0	3107	153.085875930762	0.0495
0	3107	153.085875930762	0.0495
0	3109	153.185875930762	0.0499
0	3111	153.285875930762	0.05
0	3113	153.385875930762	0.05
0	3115	153.485875930762	0.05
0	3115	153.52369615	0.05
0	3117	153.585875930762	0.05
0	3119	153.685875930762	0.05
0	3121	153.785875930762	0.05
0	3123	153.885875930762	0.05
0	3125	153.985875930762	0.05
0	3125	154.025194642	0.05
0	3127	154.085875930762	0.05
0	3129	154.185875930762	0.05
0	3130	154.23298887066	0.05
0	3132	154.285875930762	0.05
0	3134	154.385875930762	0.05
0	3135	154.482374671	0.0495
0	3135	154.482374671	0.0495
0	3136	154.485875930762	0.0495
0	3138	154.585875930762	0.0495
0	3140	154.685875930762	0.0495
0	3142	154.785875930762	0.0495
0	3144	154.885875930762	0.0495
0	3146	154.985875930762	0.0495
0	3147	155.059442047	0.0495
0	3148	155.085875930762	0.0495
0	3150	155.185875930762	0.0495
0	3152	155.285875930762	0.0495
0	3154	155.385875930762	0.0495
0	3156	155.485875930762	0.0495
0	3156	155.51892448	0.0495
0	3158	155.585875930762	0.0495
0	3160	155.685875930762	0.0495
0	3162	155.785875930762	0.0495
0	3164	155.885875930762	0.0495
0	3165	155.968938334	0.0495
0	3166	155.985875930762	0.0495
0	3168	156.085875930762	0.0495
0	3170	156.185875930762	0.0495
0	3170	156.246240685	0.0495
0	3172	156.285875930762	0.0495
0	3174	156.385875930762	0.0495
0	3176	156.485875930762	0.0495
0	3178	156.585875930762	0.0495
0	3180	156.685875930762	0.0495
0	3180	156.710606116	0.0495
0	3182	156.785875930762	0.0495
0	3184	156.885875930762	0.0495
0	3186	156.985875930762	0.0495
0	3188	157.085875930762	0.0495
0	3190	157.185875930762	0.0495
0	3192	157.285875930762	0.0495
0	3193	157.374276859	0.0495
0	3194	157.385875930762	0.0495
0	3196	157.485875930762	0.0495
0	3198	157.585875930762	0.0495
0	3200	157.685875930762	0.0495
0	3202	157.785875930762	0.0495
0	3203	157.873551382	0.0495
0	3204	157.885875930762	0.0495
0	3206	157.985875930762	0.0495
0	3208	158.085875930762	0.0495
0	3210	158.185875930762	0.0495
0	3212	158.285875930762	0.0495
0	3213	158.357013034	0.0495
0	3214	158.385875930762	0.0495
0	3216	158.485875930762	0.0495
0	3218	158.585875930762	0.0495
0	3218	158.615968342	0.0495
0	3220	158.685875930762	0.0495
0	3222	158.785875930762	0.0495
0	3224	158.885875930762	0.0495
0	3224	158.905041739	0.0495
0	3226	158.985875930762	0.0495
0	3228	159.085875930762	0.0495
0	3230	159.185875930762	0.0495
0	3232	159.285875930762	0.0495
0	3234	159.37764841	0.0495
0	3235	159.385875930762	0.0495
0	3237	159.485875930762	0.0495
0	3239	159.585875930762	0.0495
0	3241	159.685875930762	0.0495
0	3243	159.785875930762	0.0495
0	3243	159.849661174	0.0495
0	3245	159.885875930762	0.0495
0	3247	159.985875930762	0.049005
0	3247	159.985875930762	0.049005
0	3249	160.085875930762	0.049005
0	3251	160.185875930762	0.049005
0	3252	160.273982137	0.049005
0	3253	160.285875930762	0.049005
0	3255	160.385875930762	0.049005
0	3257	160.485875930762	0.049005
0	3259	160.585875930762	0.049005
0	3261	160.685875930762	0.049005
0	3261	160.744938193	0.049005
0	3263	160.785875930762	0.049005
0	3265	160.885875930762	0.049005
0	3267	160.985875930762	0.049005
0	3269	161.085875930762	0.049005
0	3271	161.185875930762	0.049005
0	3272	161.273730889	0.049005
0	3273	161.285875930762	0.049005
0	3275	161.385875930762	0.04851495
0	3275	161.385875930762	0.04851495
0	3277	161.485875930762	0.04851495
0	3279	161.585875930762	0.04851495
0	3281	161.685875930762	0.04851495
0	3281	161.702091682	0.04851495
0	3283	161.785875930762	0.04851495
0	3285	161.885875930762	0.04851495
0	3287	161.985875930762	0.04851495
0	3289	162.085875930762	0.04851495
0	3291	162.185875930762	0.04851495
0	3291	162.201260224	0.04851495
0	3293	162.285875930762	0.04851495
0	3295	162.385875930762	0.04851495
0	3297	162.485875930762	0.04851495
0	3299	162.585875930762	0.04851495
0	3301	162.685875930762	0.04851495
0	3301	162.703713406	0.04851495
0	3303	162.785875930762	0.0480298005
0	3303	162.785875930762	0.0480298005
0	3305	162.885875930762	0.0480298005
0	3306	162.983824288	0.0480298005
0	3307	162.985875930762	0.0480298005
0	3309	163.085875930762	0.0480298005
0	3311	163.185875930762	0.0480298005
0	3312	163.271826571	0.0480298005
0	3313	163.285875930762	0.0480298005
0	3315	163.385875930762	0.0480298005
0	3317	163.485875930762	0.0480298005
0	3319	163.585875930762	0.0480298005
0	3321	163.685875930762	0.0480298005
0	3321	163.741440265	0.0480298005
0	3323	163.785875930762	0.0480298005
0	3325	163.885875930762	0.0480298005
0	3327	163.985875930762	0.0480298005
0	3327	164.024506237	0.0480298005
0	3329	164.085875930762	0.047549502495
0	3329	164.085875930762	0.047549502495
0	3331	164.185875930762	0.047549502495
0	3331	164.250197989	0.047549502495
0	3333	164.285875930762	0.047549502495
0	3335	164.385875930762	0.047549502495
0	3337	164.485875930762	0.047549502495
0	3339	164.585875930762	0.047549502495
0	3341	164.685875930762	0.047549502495
0	3341	164.752915744	0.047549502495
0	3343	164.785875930762	0.047549502495
0	3345	164.885875930762	0.047549502495
0	3347	164.985875930762	0.047549502495
0	3349	165.085875930762	0.047549502495
0	3351	165.185875930762	0.047549502495
0	3353	165.285875930762	0.047549502495
0	3355	165.385875930762	0.047549502495
0	3355	165.418097749	0.047549502495
0	3357	165.485875930762	0.04707400747005
0	3357	165.485875930762	0.04707400747005
0	3359	165.585875930762	0.04707400747005
0	3361	165.685875930762	0.04707400747005
0	3363	165.785875930762	0.04707400747005
0	3365	165.885875930762	0.04707400747005
0	3365	165.949053505	0.04707400747005
0	3367	165.985875930762	0.04707400747005
0	3369	166.085875930762	0.04707400747005
0	3371	166.185875930762	0.04707400747005
0	3371	166.236249817	0.04707400747005
0	3373	166.285875930762	0.04707400747005
0	3375	166.385875930762	0.04707400747005
0	3377	166.485875930762	0.04707400747005
0	3379	166.585875930762	0.04707400747005
0	3381	166.685875930762	0.04707400747005
0	3381	166.719221992	0.04707400747005
0	3383	166.785875930762	0.04707400747005
0	3385	166.885875930762	0.04660326739535
0	3385	166.885875930762	0.04660326739535
0	3387	166.985875930762	0.04660326739535
0	3389	167.085875930762	0.04660326739535
0	3391	167.185875930762	0.04660326739535
0	3392	167.270901715	0.04660326739535
0	3393	167.285875930762	0.04660326739535
0	3395	167.385875930762	0.04660326739535
0	3397	167.485875930762	0.04660326739535
0	3399	167.585875930762	0.04660326739535
0	3401	167.685875930762	0.04660326739535
0	3403	167.785875930762	0.04660326739535
0	3405	167.885875930762	0.04660326739535
0	3405	167.8982494	0.04660326739535
0	3407	167.985875930762	0.04660326739535
0	3409	168.085875930762	0.04660326739535
0	3411	168.185875930762	0.04660326739535
0	3413	168.285875930762	0.04660326739535
0	3413	168.316477888	0.046137234721396
0	3413	168.316477888	0.046137234721396
0	3415	168.385875930762	0.046137234721396
0	3417	168.485875930762	0.046137234721396
0	3419	168.585875930762	0.046137234721396
0	3421	168.685875930762	0.046137234721396
0	3421	168.707976295	0.046137234721396
0	3423	168.785875930762	0.046137234721396
0	3425	168.885875930762	0.046137234721396
0	3427	168.985875930762	0.046137234721396
0	3429	169.085875930762	0.046137234721396
0	3429	169.133245762	0.046137234721396
0	3431	169.185875930762	0.046137234721396
0	3433	169.285875930762	0.046137234721396
0	3435	169.385875930762	0.046137234721396
0	3435	169.42959586	0.046137234721396
0	3437	169.485875930762	0.046137234721396
0	3439	169.585875930762	0.046137234721396
0	3441	169.685875930762	0.045675862374182
0	3441	169.685875930762	0.045675862374182
0	3441	169.730061262	0.045675862374182
0	3443	169.785875930762	0.045675862374182
0	3445	169.885875930762	0.045675862374182
0	3447	169.985875930762	0.045675862374182
0	3449	170.085875930762	0.045675862374182
0	3451	170.185875930762	0.045675862374182
0	3453	170.285875930762	0.045675862374182
0	3453	170.362371001	0.045675862374182
0	3455	170.385875930762	0.045675862374182
0	3457	170.485875930762	0.045675862374182
0	3459	170.585875930762	0.045675862374182
0	3461	170.685875930762	0.045675862374182
0	3463	170.785875930762	0.045675862374182
0	3465	170.885875930762	0.045675862374182
0	3465	170.913448567	0.045675862374182
0	3467	170.985875930762	0.045675862374182
0	3469	171.085875930762	0.04521910375044
0	3469	171.085875930762	0.04521910375044
0	3471	171.185875930762	0.04521910375044
0	3473	171.285875930762	0.04521910375044
0	3475	171.385875930762	0.04521910375044
0	3475	171.460678936	0.04521910375044
0	3477	171.485875930762	0.04521910375044
0	3479	171.585875930762	0.04521910375044
0	3481	171.685875930762	0.04521910375044
0	3483	171.785875930762	0.04521910375044
0	3485	171.885875930762	0.04521910375044
0	3485	171.888918484	0.04521910375044
0	3487	171.985875930762	0.04521910375044
0	3488	172.018786495678	0.04521910375044
0	3490	172.118786495678	0.04521910375044
0	3492	172.218786495678	0.04521910375044
0	3494	172.318786495678	0.04521910375044
0	3494	172.336394149	0.04521910375044
0	3496	172.418786495678	0.04521910375044
0	3498	172.518786495678	0.04521910375044
0	3500	172.618786495678	0.04521910375044
0	3502	172.718786495678	0.04521910375044
0	3504	172.818786495678	0.04521910375044
0	3504	172.822109851	0.04521910375044
0	3506	172.918786495678	0.04521910375044
0	3508	173.018786495678	0.04521910375044
0	3510	173.118786495678	0.04521910375044
0	3512	173.218786495678	0.04521910375044
0	3514	173.318786495678	0.04521910375044
0	3516	173.418786495678	0.04521910375044
0	3516	173.44576183	0.04521910375044
0	3518	173.518786495678	0.04521910375044
0	3520	173.618786495678	0.04521910375044
0	3522	173.718786495678	0.04521910375044
0	3524	173.818786495678	0.04521910375044
0	3526	173.918786495678	0.04521910375044
0	3528	174.018786495678	0.04521910375044
0	3530	174.118786495678	0.04521910375044
0	3530	174.154405279	0.04521910375044
0	3532	174.218786495678	0.04521910375044
0	3534	174.318786495678	0.04521910375044
0	3536	174.418786495678	0.04521910375044
0	3538	174.518786495678	0.04521910375044
0	3540	174.618786495678	0.04521910375044
0	3542	174.718786495678	0.04521910375044
0	3543	174.810787867	0.04521910375044
0	3544	174.818786495678	0.04521910375044
0	3546	174.918786495678	0.04521910375044
0	3548	175.018786495678	0.04521910375044
0	3550	175.118786495678	0.04521910375044
0	3552	175.218786495678	0.04521910375044
0	3554	175.318786495678	0.04521910375044
0	3556	175.418786495678	0.04521910375044
0	3557	175.499848378	0.04521910375044
0	3558	175.518786495678	0.04521910375044
0	3560	175.618786495678	0.04521910375044
0	3562	175.718786495678	0.04521910375044
0	3564	175.818786495678	0.04521910375044
0	3566	175.918786495678	0.04521910375044
0	3567	175.995382051	0.04521910375044
0	3568	176.018786495678	0.04521910375044
0	3570	176.118786495678	0.04521910375044
0	3572	176.218786495678	0.04521910375044
0	3574	176.318786495678	0.04521910375044
0	3576	176.418786495678	0.04521910375044
0	3578	176.518786495678	0.04521910375044
0	3578	176.541514615	0.04521910375044
0	3580	176.618786495678	0.04521910375044
0	3582	176.718786495678	0.04521910375044
0	3584	176.818786495678	0.04521910375044
0	3586	176.918786495678	0.04521910375044
0	3588	177.018786495678	0.04521910375044
0	3589	177.108661117	0.04521910375044
0	3590	177.118786495678	0.04521910375044
0	3592	177.218786495678	0.04521910375044
0	3594	177.318786495678	0.04521910375044
0	3596	177.418786495678	0.04521910375044
0	3598	177.518786495678	0.04521910375044
0	3600	177.618786495678	0.04521910375044
0	3600	177.628312477	0.04521910375044
0	3602	177.718786495678	0.04521910375044
0	3604	177.818786495678	0.04521910375044
0	3606	177.918786495678	0.04521910375044
0	3608	178.018786495678	0.04521910375044
0	3610	178.118786495678	0.04521910375044
0	3610	178.139217058	0.04521910375044
0	3612	178.218786495678	0.04521910375044
0	3614	178.318786495678	0.04521910375044
0	3616	178.418786495678	0.04521910375044
0	3618	178.518786495678	0.04521910375044
0	3620	178.618786495678	0.04521910375044
0	3621	178.672298695	0.04521910375044
0	3622	178.718786495678	0.04521910375044
0	3624	178.818786495678	0.04521910375044
0	3626	178.918786495678	0.04521910375044
0	3628	179.018786495678	0.04521910375044
0	3630	179.118786495678	0.04521910375044
0	3631	179.215828306	0.04521910375044
0	3632	179.218786495678	0.04521910375044
0	3634	179.318786495678	0.04521910375044
0	3636	179.418786495678	0.04521910375044
0	3638	179.518786495678	0.04521910375044
0	3640	179.618786495678	0.04521910375044
0	3642	179.718786495678	0.04521910375044
0	3642	179.738670166	0.04521910375044
0	3644	179.818786495678	0.04521910375044
0	3646	179.918786495678	0.04521910375044
0	3648	180.018786495678	0.04521910375044
0	3650	180.118786495678	0.04521910375044
0	3650	180.141318442	0.04521910375044
0	3652	180.218786495678	0.04521910375044
0	3654	180.318786495678	0.04521910375044
0	3656	180.418786495678	0.04521910375044
0	3658	180.518786495678	0.04521910375044
0	3659	180.614345686	0.04521910375044
0	3660	180.618786495678	0.04521910375044
0	3662	180.718786495678	0.04521910375044
0	3664	180.818786495678	0.04521910375044
0	3666	180.918786495678	0.04521910375044
0	3667	181.012280542	0.04521910375044
0	3668	181.018786495678	0.04521910375044
0	3670	181.118786495678	0.04521910375044
0	3672	181.218786495678	0.04521910375044
0	3673	181.294197007	0.04521910375044
0	3674	181.318786495678	0.04521910375044
0	3676	181.418786495678	0.04521910375044
0	3678	181.518786495678	0.04521910375044
0	3680	181.618786495678	0.04521910375044
0	3682	181.718786495678	0.04521910375044
0	3683	181.801588246	0.04521910375044
0	3684	181.818786495678	0.04521910375044
0	3686	181.918786495678	0.04521910375044
0	3688	182.018786495678	0.04521910375044
0	3690	182.118786495678	0.04521910375044
0	3692	182.218786495678	0.04521910375044
0	3694	182.318786495678	0.04521910375044
0	3694	182.321156977	0.04521910375044
0	3696	182.418786495678	0.04521910375044
0	3698	182.518786495678	0.04521910375044
0	3700	182.618786495678	0.04521910375044
0	3702	182.718786495678	0.04521910375044
0	3703	182.800516159	0.04521910375044
0	3704	182.818786495678	0.04521910375044
0	3706	182.918786495678	0.04521910375044
0	3708	183.018786495678	0.04521910375044
0	3710	183.118786495678	0.04521910375044
0	3711	183.208906552	0.04521910375044
0	3712	183.218786495678	0.04521910375044
0	3714	183.318786495678	0.04521910375044
0	3716	183.418786495678	0.04521910375044
0	3718	183.518786495678	0.04521910375044
0	3720	183.618786495678	0.04521910375044
0	3721	183.683896009	0.04521910375044
0	3722	183.718786495678	0.04521910375044
0	3724	183.818786495678	0.04521910375044
0	3726	183.918786495678	0.04521910375044
0	3728	184.018786495678	0.04521910375044
0	3730	184.118786495678	0.04521910375044
0	3730	184.156645402	0.04521910375044
0	3732	184.218786495678	0.04521910375044
0	3734	184.318786495678	0.04521910375044
0	3736	184.418786495678	0.04521910375044
0	3738	184.518786495678	0.04521910375044
0	3740	184.618786495678	0.04521910375044
0	3742	184.718786495678	0.04521910375044
0	3743	184.818564334	0.04521910375044
0	3744	184.818786495678	0.04521910375044
0	3746	184.918786495678	0.04521910375044
0	3748	185.018786495678	0.04521910375044
0	3749	185.109516874	0.04521910375044
0	3750	185.118786495678	0.04521910375044
0	3752	185.218786495678	0.04521910375044
0	3754	185.318786495678	0.04521910375044
0	3756	185.418786495678	0.04521910375044
0	3757	185.491967206	0.04521910375044
0	3758	185.518786495678	0.04521910375044
0	3760	185.618786495678	0.04521910375044
0	3762	185.718786495678	0.04521910375044
0	3762	185.757994621	0.04521910375044
0	3764	185.818786495678	0.04521910375044
0	3766	185.918786495678	0.04521910375044
0	3768	186.018786495678	0.04521910375044
0	3770	186.118786495678	0.04521910375044
0	3771	186.217139476	0.04521910375044
0	3772	186.218786495678	0.04521910375044
0	3774	186.318786495678	0.04521910375044
0	3776	186.418786495678	0.04521910375044
0	3778	186.518786495678	0.04521910375044
0	3780	186.618786495678	0.04521910375044
0	3782	186.718786495678	0.04521910375044
0	3782	186.761148118	0.04521910375044
0	3784	186.818786495678	0.04521910375044
0	3786	186.918786495678	0.04521910375044
0	3788	187.018786495678	0.04521910375044
0	3790	187.118786495678	0.04521910375044
0	3792	187.218786495678	0.04521910375044
0	3792	187.258748617	0.04521910375044
0	3794	187.318786495678	0.04521910375044
0	3796	187.418786495678	0.04521910375044
0	3798	187.518786495678	0.04521910375044
0	3800	187.618786495678	0.04521910375044
0	3802	187.718786495678	0.04521910375044
0	3804	187.818786495678	0.04521910375044
0	3804	187.821782086	0.04521910375044
0	3806	187.918786495678	0.04521910375044
0	3808	188.018786495678	0.04521910375044
0	3810	188.118786495678	0.04521910375044
0	3812	188.218786495678	0.04521910375044
0	3814	188.318786495678	0.04521910375044
0	3814	188.363180662	0.04521910375044
0	3816	188.418786495678	0.04521910375044
0	3818	188.518786495678	0.04521910375044
0	3820	188.618786495678	0.04521910375044
0	3822	188.718786495678	0.04521910375044
0	3824	188.818786495678	0.04521910375044
0	3826	188.918786495678	0.04521910375044
0	3826	188.922021436	0.04521910375044
0	3828	189.018786495678	0.04521910375044
0	3830	189.118786495678	0.04521910375044
0	3832	189.218786495678	0.04521910375044
0	3834	189.318786495678	0.04521910375044
0	3836	189.418786495678	0.04521910375044
0	3837	189.476180611	0.044766912712936
0	3837	189.476180611	0.044766912712936
0	3838	189.518786495678	0.044766912712936
0	3840	189.618786495678	0.044766912712936
0	3842	189.718786495678	0.044766912712936
0	3844	189.818786495678	0.044766912712936
0	3846	189.918786495678	0.044766912712936
0	3848	190.018786495678	0.044766912712936
0	3850	190.118786495678	0.044766912712936
0	3850	190.158212704	0.044766912712936
0	3852	190.218786495678	0.044766912712936
0	3854	190.318786495678	0.044766912712936
0	3856	190.418786495678	0.044766912712936
0	3858	190.518786495678	0.044766912712936
0	3860	190.618786495678	0.044766912712936
0	3861	190.700908573	0.044766912712936
0	3862	190.718786495678	0.044766912712936
0	3864	190.818786495678	0.044766912712936
0	3866	190.918786495678	0.044766912712936
0	3868	191.018786495678	0.044766912712936
0	3870	191.118786495678	0.044766912712936
0	3872	191.218786495678	0.044766912712936
0	3873	191.313801445	0.044766912712936
0	3874	191.318786495678	0.044766912712936
0	3876	191.418786495678	0.044766912712936
0	3878	191.518786495678	0.044766912712936
0	3880	191.618786495678	0.044766912712936
0	3882	191.718786495678	0.044766912712936
0	3884	191.818786495678	0.044766912712936
0	3886	191.918786495678	0.044766912712936
0	3886	191.946220672	0.044766912712936
0	3888	192.018786495678	0.044766912712936
0	3890	192.118786495678	0.044766912712936
0	3892	192.218786495678	0.044766912712936
0	3894	192.318786495678	0.044766912712936
0	3896	192.418786495678	0.044766912712936
0	3897	192.503638621	0.044766912712936
0	3898	192.518786495678	0.044766912712936
0	3900	192.618786495678	0.044766912712936
0	3902	192.718786495678	0.044766912712936
0	3904	192.818786495678	0.044766912712936
0	3906	192.918786495678	0.044766912712936
0	3908	193.018786495678	0.044766912712936
0	3909	193.082355142	0.044766912712936
0	3910	193.118786495678	0.044766912712936
0	3912	193.218786495678	0.044766912712936
0	3914	193.318786495678	0.044766912712936
0	3916	193.418786495678	0.044766912712936
0	3918	193.518786495678	0.044766912712936
0	3919	193.567857703	0.044766912712936
0	3920	193.618786495678	0.044766912712936
0	3922	193.718786495678	0.044766912712936
0	3923	193.817857321	0.044319243585806
0	3923	193.817857321	0.044319243585806
0	3924	193.818786495678	0.044319243585806
0	3926	193.918786495678	0.044319243585806
0	3928	194.018786495678	0.044319243585806
0	3930	194.118786495678	0.044319243585806
0	3932	194.218786495678	0.044319243585806
0	3933	194.314318783	0.044319243585806
0	3934	194.318786495678	0.044319243585806
0	3936	194.418786495678	0.044319243585806
0	3938	194.518786495678	0.044319243585806
0	3940	194.618786495678	0.044319243585806
0	3942	194.718786495678	0.044319243585806
0	3943	194.767154959	0.044319243585806
0	3944	194.818786495678	0.044319243585806
0	3946	194.918786495678	0.044319243585806
0	3948	195.018786495678	0.044319243585806
0	3950	195.118786495678	0.044319243585806
0	3952	195.218786495678	0.044319243585806
0	3954	195.318786495678	0.044319243585806
0	3954	195.353360863	0.044319243585806
0	3956	195.418786495678	0.044319243585806
0	3958	195.518786495678	0.044319243585806
0	3960	195.618786495678	0.044319243585806
0	3962	195.718786495678	0.044319243585806
0	3964	195.818786495678	0.044319243585806
0	3964	195.853873627	0.044319243585806
0	3966	195.918786495678	0.044319243585806
0	3968	196.018786495678	0.044319243585806
0	3970	196.118786495678	0.044319243585806
0	3972	196.218786495678	0.044319243585806
0	3974	196.318786495678	0.044319243585806
0	3975	196.394516146	0.044319243585806
0	3976	196.418786495678	0.044319243585806
0	3978	196.518786495678	0.044319243585806
0	3980	196.618786495678	0.044319243585806
0	3982	196.718786495678	0.044319243585806
0	3984	196.818786495678	0.044319243585806
0	3984	196.825632442	0.044319243585806
0	3986	196.918786495678	0.044319243585806
0	3988	197.018786495678	0.044319243585806
0	3990	197.118786495678	0.044319243585806
0	3992	197.218786495678	0.044319243585806
0	3992	197.221200019	0.044319243585806
0	3994	197.318786495678	0.044319243585806
0	3996	197.418786495678	0.044319243585806
0	3998	197.518786495678	0.044319243585806
0	4000	197.618786495678	0.044319243585806
0	4001	197.663363841833	0.044319243585806
0	4002	197.691277087	0.044430896566474
0	4003	197.708552945381	0.0445
0	4004	197.718786495678	0.044540934201188
0	4006	197.818786495678	0.044940934201188
0	4007	197.833552945381	0.045
0	4009	197.918786495678	0.044887524859176
0	4009	197.918786495678	0.044887524859176
0	4010	197.958552945381	0.0455
0	4012	198.018786495678	0.045740934201188
0	4014	198.083552945381	0.046
0	4015	198.118786495678	0.046140934201188
0	4015	198.159269257	0.046302865246476
0	4017	198.208552945381	0.0465
0	4018	198.218786495678	0.046540934201188
0	4020	198.318786495678	0.046940934201188
0	4021	198.333552945381	0.047
0	4023	198.418786495678	0.047340934201188
0	4024	198.458552945381	0.0475
0	4026	198.518786495678	0.047740934201188
0	4028	198.583552945381	0.048
0	4029	198.618786495678	0.048140934201188
0	4030	198.698000134	0.048457788754476
0	4031	198.708552945381	0.0485
0	4032	198.718786495678	0.048540934201188
0	4034	198.818786495678	0.048940934201188
0	4035	198.833552945381	0.049
[...]
2	33820	1656.993083317227	0.05
2	33822	1657.093083317227	0.05
2	33824	1657.193083317227	0.05
2	33826	1657.293083317227	0.05
2	33828	1657.393083317227	0.05
2	33828	1657.429081105131	0.05
2	33830	1657.493083317227	0.05
2	33832	1657.593083317227	0.05
2	33834	1657.693083317227	0.05
2	33836	1657.793083317227	0.05
2	33838	1657.893083317227	0.05
2	33840	1657.993083317227	0.05
2	33841	1658.063793781132	0.05
2	33842	1658.093083317227	0.05
2	33844	1658.193083317227	0.05
2	33846	1658.293083317227	0.05
2	33848	1658.393083317227	0.05
2	33850	1658.493083317227	0.05
2	33852	1658.593083317227	0.05
2	33853	1658.673721852132	0.05
2	33854	1658.693083317227	0.05
2	33856	1658.793083317227	0.05
2	33858	1658.893083317227	0.05
2	33860	1658.993083317227	0.05
2	33862	1659.093083317227	0.05
2	33864	1659.193083317227	0.05
2	33866	1659.293083317227	0.05
2	33866	1659.322559812133	0.05
2	33868	1659.393083317227	0.05
2	33870	1659.493083317227	0.05
2	33872	1659.593083317227	0.05
2	33874	1659.693083317227	0.05
2	33876	1659.793083317227	0.05
2	33878	1659.893083317227	0.05
2	33878	1659.953471104133	0.05
2	33880	1659.993083317227	0.05
2	33882	1660.093083317227	0.05
2	33884	1660.193083317227	0.05
2	33886	1660.293083317227	0.05
2	33888	1660.393083317227	0.05
2	33890	1660.493083317227	0.05
2	33890	1660.535943106134	0.05
2	33892	1660.593083317227	0.05
2	33894	1660.693083317227	0.05
2	33896	1660.793083317227	0.05
2	33898	1660.893083317227	0.05
2	33900	1660.993083317227	0.05
2	33901	1661.077080715135	0.05
2	33902	1661.093083317227	0.05
2	33904	1661.193083317227	0.05
2	33906	1661.293083317227	0.05
2	33908	1661.393083317227	0.05
2	33910	1661.493083317227	0.05
2	33912	1661.593083317227	0.05
2	33912	1661.599893124135	0.05
2	33914	1661.693083317227	0.05
2	33916	1661.793083317227	0.05
2	33918	1661.893083317227	0.05
2	33920	1661.993083317227	0.05
2	33922	1662.093083317227	0.05
2	33924	1662.193083317227	0.05
2	33926	1662.293083317227	0.05
2	33926	1662.303902959136	0.0495
2	33926	1662.303902959136	0.0495
2	33928	1662.393083317227	0.0495
2	33930	1662.493083317227	0.0495
2	33932	1662.593083317227	0.0495
2	33934	1662.693083317227	0.0495
2	33936	1662.793083317227	0.0495
2	33938	1662.893083317227	0.0495
2	33940	1662.993083317227	0.0495
2	33942	1663.093083317227	0.0495
2	33942	1663.145827321137	0.0495
2	33944	1663.193083317227	0.0495
2	33946	1663.293083317227	0.0495
2	33948	1663.393083317227	0.0495
2	33950	1663.493083317227	0.0495
2	33952	1663.593083317227	0.0495
2	33954	1663.693083317227	0.0495
2	33954	1663.737442060138	0.0495
2	33956	1663.793083317227	0.0495
2	33957	1663.810681728346	0.0495
2	33959	1663.893083317227	0.049829606355524
2	33961	1663.935681728346	0.05
2	33963	1663.993083317227	0.05
2	33966	1664.093083317227	0.05
2	33969	1664.193083317227	0.05
2	33972	1664.293083317227	0.05
2	33974	1664.377937041139	0.05
2	33975	1664.393083317227	0.05
2	33977	1664.493083317227	0.05
2	33980	1664.593083317227	0.05
2	33983	1664.693083317227	0.05
2	33985	1664.793083317227	0.05
2	33987	1664.893083317227	0.0495
2	33987	1664.893083317227	0.0495
2	33989	1664.993083317227	0.0499
2	33989	1665.054524326139	0.05
2	33991	1665.093083317227	0.05
2	33993	1665.193083317227	0.05
2	33995	1665.293083317227	0.05
2	33997	1665.393083317227	0.05
2	33999	1665.493083317227	0.05
2	34001	1665.593083317227	0.05
2	34003	1665.693083317227	0.05
2	34003	1665.69510525114	0.05
2	34005	1665.793083317227	0.05
2	34007	1665.893083317227	0.05
2	34009	1665.993083317227	0.05
2	34011	1666.093083317227	0.05
2	34013	1666.193083317227	0.05
2	34014	1666.283253598141	0.05
2	34015	1666.293083317227	0.0495
2	34015	1666.293083317227	0.0495
2	34017	1666.393083317227	0.0499
2	34019	1666.493083317227	0.05
2	34021	1666.593083317227	0.05
2	34023	1666.693083317227	0.05
2	34025	1666.793083317227	0.05
2	34027	1666.893083317227	0.05
2	34028	1666.979007106142	0.05
2	34029	1666.993083317227	0.05
2	34031	1667.093083317227	0.05
2	34033	1667.193083317227	0.05
2	34035	1667.293083317227	0.05
2	34037	1667.393083317227	0.05
2	34039	1667.493083317227	0.05
2	34041	1667.593083317227	0.05
2	34041	1667.646332104143	0.05
2	34043	1667.693083317227	0.05
2	34045	1667.793083317227	0.0495
2	34045	1667.793083317227	0.0495
2	34047	1667.893083317227	0.0499
2	34049	1667.993083317227	0.05
2	34051	1668.093083317227	0.05
2	34053	1668.193083317227	0.05
2	34054	1668.287251177144	0.05
2	34055	1668.293083317227	0.05
2	34057	1668.393083317227	0.05
2	34059	1668.493083317227	0.05
2	34061	1668.593083317227	0.05
2	34063	1668.693083317227	0.05
2	34065	1668.793083317227	0.05
2	34067	1668.893083317227	0.05
2	34069	1668.993083317227	0.05
2	34069	1669.054074754144	0.05
2	34071	1669.093083317227	0.05
2	34073	1669.193083317227	0.05
2	34075	1669.293083317227	0.0495
2	34075	1669.293083317227	0.0495
2	34077	1669.393083317227	0.0499
2	34079	1669.493083317227	0.05
2	34081	1669.593083317227	0.05
2	34083	1669.693083317227	0.05
2	34083	1669.737116704145	0.05
2	34085	1669.793083317227	0.05
2	34087	1669.893083317227	0.05
2	34089	1669.993083317227	0.05
2	34091	1670.093083317227	0.05
2	34093	1670.193083317227	0.05
2	34095	1670.293083317227	0.05
2	34097	1670.393083317227	0.05
2	34099	1670.493083317227	0.05
2	34099	1670.512124110146	0.05
2	34101	1670.593083317227	0.05
2	34103	1670.693083317227	0.05
2	34105	1670.793083317227	0.0495
2	34105	1670.793083317227	0.0495
2	34107	1670.893083317227	0.0499
2	34109	1670.993083317227	0.05
2	34111	1671.093083317227	0.05
2	34113	1671.193083317227	0.05
2	34115	1671.293083317227	0.05
2	34115	1671.312700630147	0.05
2	34117	1671.393083317227	0.05
2	34119	1671.493083317227	0.05
2	34121	1671.593083317227	0.05
2	34123	1671.693083317227	0.05
2	34125	1671.793083317227	0.05
2	34127	1671.893083317227	0.05
2	34128	1671.982936030147	0.05
2	34129	1671.993083317227	0.05
2	34131	1672.093083317227	0.05
2	34133	1672.193083317227	0.05
2	34135	1672.293083317227	0.0495
2	34135	1672.293083317227	0.0495
2	34137	1672.393083317227	0.0499
2	34139	1672.493083317227	0.05
2	34139	1672.508916061147	0.05
2	34141	1672.593083317227	0.05
2	34143	1672.693083317227	0.05
2	34145	1672.793083317227	0.05
2	34147	1672.893083317227	0.05
2	34149	1672.993083317227	0.05
2	34151	1673.093083317227	0.05
2	34151	1673.097064525148	0.05
2	34153	1673.193083317227	0.05
2	34155	1673.293083317227	0.05
2	34157	1673.393083317227	0.05
2	34158	1673.421010361077	0.05
2	34160	1673.521010361077	0.05
2	34162	1673.621010361077	0.05
2	34164	1673.721010361077	0.05
2	34165	1673.807536486148	0.05
2	34166	1673.821010361077	0.05
2	34168	1673.921010361077	0.05
2	34170	1674.021010361077	0.05
2	34172	1674.121010361077	0.05
2	34174	1674.221010361077	0.05
2	34176	1674.321010361077	0.05
2	34178	1674.421010361077	0.05
2	34180	1674.521010361077	0.05
2	34181	1674.566086177149	0.05
2	34182	1674.621010361077	0.05
2	34184	1674.721010361077	0.05
2	34186	1674.821010361077	0.05
2	34188	1674.921010361077	0.05
2	34190	1675.021010361077	0.05
2	34192	1675.121010361077	0.05
2	34194	1675.221010361077	0.05
2	34195	1675.274047720149	0.05
2	34196	1675.321010361077	0.05
2	34198	1675.421010361077	0.05
2	34200	1675.521010361077	0.05
2	34202	1675.621010361077	0.05
2	34204	1675.721010361077	0.05
2	34206	1675.821010361077	0.05
2	34208	1675.921010361077	0.05
2	34208	1675.95527553415	0.05
2	34210	1676.021010361077	0.05
2	34212	1676.121010361077	0.05
2	34214	1676.221010361077	0.05
2	34216	1676.321010361077	0.05
2	34218	1676.421010361077	0.05
2	34220	1676.521010361077	0.05
2	34221	1676.58709574815	0.05
2	34222	1676.621010361077	0.05
2	34224	1676.721010361077	0.05
2	34226	1676.821010361077	0.05
2	34228	1676.921010361077	0.05
2	34230	1677.021010361077	0.05
2	34232	1677.121010361077	0.05
2	34234	1677.221010361077	0.05
2	34234	1677.238916989151	0.05
2	34236	1677.321010361077	0.05
2	34238	1677.421010361077	0.05
2	34240	1677.521010361077	0.05
2	34242	1677.621010361077	0.05
2	34244	1677.721010361077	0.05
2	34246	1677.821010361077	0.05
2	34248	1677.921010361077	0.05
2	34250	1678.021010361077	0.05
2	34251	1678.066058314152	0.05
2	34252	1678.121010361077	0.05
2	34255	1678.221010361077	0.05
2	34257	1678.321010361077	0.05
2	34259	1678.421010361077	0.05
2	34261	1678.521010361077	0.05
2	34263	1678.621010361077	0.05
2	34265	1678.721010361077	0.05
2	34267	1678.821010361077	0.05
2	34267	1678.837904011152	0.05
2	34269	1678.921010361077	0.05
2	34271	1679.021010361077	0.05
2	34273	1679.121010361077	0.05
2	34275	1679.221010361077	0.05
2	34277	1679.321010361077	0.05
2	34279	1679.421010361077	0.05
2	34281	1679.521010361077	0.05
2	34281	1679.572175755153	0.05
2	34283	1679.621010361077	0.0495
2	34283	1679.621010361077	0.0495
2	34285	1679.721010361077	0.0499
2	34287	1679.821010361077	0.05
2	34289	1679.921010361077	0.05
2	34291	1680.021010361077	0.05
2	34293	1680.121010361077	0.05
2	34295	1680.221010361077	0.05
2	34295	1680.229987909153	0.05
2	34297	1680.321010361077	0.05
2	34299	1680.421010361077	0.05
2	34301	1680.521010361077	0.05
2	34303	1680.621010361077	0.05
2	34305	1680.721010361077	0.05
2	34307	1680.821010361077	0.05
2	34307	1680.874891669154	0.05
2	34309	1680.921010361077	0.05
2	34311	1681.021010361077	0.05
2	34313	1681.121010361077	0.0495
2	34313	1681.121010361077	0.0495
2	34315	1681.221010361077	0.0499
2	34317	1681.321010361077	0.05
2	34319	1681.421010361077	0.05
2	34319	1681.426998307155	0.05
2	34321	1681.521010361077	0.05
2	34323	1681.621010361077	0.05
2	34325	1681.721010361077	0.05
2	34327	1681.821010361077	0.05
2	34329	1681.921010361077	0.05
2	34329	1681.939743997155	0.05
2	34331	1682.021010361077	0.05
2	34333	1682.121010361077	0.05
2	34335	1682.221010361077	0.05
2	34337	1682.321010361077	0.05
2	34339	1682.421010361077	0.05
2	34341	1682.521010361077	0.05
2	34343	1682.621010361077	0.0495
2	34343	1682.621010361077	0.0495
2	34343	1682.651770039156	0.049623038712316
2	34345	1682.721010361077	0.0499
2	34347	1682.821010361077	0.05
2	34349	1682.921010361077	0.05
2	34351	1683.021010361077	0.05
2	34353	1683.121010361077	0.05
2	34355	1683.221010361077	0.05
2	34355	1683.238756708156	0.05
2	34357	1683.321010361077	0.05
2	34359	1683.421010361077	0.05
2	34361	1683.521010361077	0.05
2	34363	1683.621010361077	0.05
2	34365	1683.721010361077	0.05
2	34367	1683.821010361077	0.05
2	34367	1683.889903708156	0.05
2	34369	1683.921010361077	0.05
2	34371	1684.021010361077	0.0495
2	34371	1684.021010361077	0.0495
2	34373	1684.121010361077	0.0499
2	34375	1684.221010361077	0.05
2	34377	1684.321010361077	0.05
2	34379	1684.421010361077	0.05
2	34379	1684.426913269157	0.05
2	34381	1684.521010361077	0.05
2	34383	1684.621010361077	0.05
2	34385	1684.721010361077	0.05
2	34387	1684.821010361077	0.05
2	34389	1684.921010361077	0.05
2	34389	1684.941559309157	0.05
2	34391	1685.021010361077	0.05
2	34393	1685.121010361077	0.05
2	34395	1685.221010361077	0.05
2	34397	1685.321010361077	0.05
2	34399	1685.421010361077	0.05
2	34399	1685.474825365157	0.05
2	34401	1685.521010361077	0.05
2	34403	1685.621010361077	0.05
2	34405	1685.721010361077	0.05
2	34407	1685.821010361077	0.05
2	34409	1685.921010361077	0.05
2	34411	1686.021010361077	0.05
2	34411	1686.030384796158	0.05
2	34413	1686.121010361077	0.05
2	34415	1686.221010361077	0.05
2	34417	1686.321010361077	0.05
2	34419	1686.421010361077	0.05
2	34421	1686.521010361077	0.05
2	34423	1686.621010361077	0.05
2	34423	1686.660982501158	0.05
2	34425	1686.721010361077	0.05
2	34427	1686.821010361077	0.05
2	34429	1686.921010361077	0.0495
2	34429	1686.921010361077	0.0495
2	34431	1687.021010361077	0.0499
2	34433	1687.121010361077	0.05
2	34435	1687.221010361077	0.05
2	34435	1687.276400197159	0.05
2	34437	1687.321010361077	0.05
2	34439	1687.421010361077	0.05
2	34441	1687.521010361077	0.05
2	34443	1687.621010361077	0.05
2	34445	1687.721010361077	0.05
2	34447	1687.821010361077	0.05
2	34449	1687.921010361077	0.05
2	34451	1688.021010361077	0.05
2	34451	1688.022769018159	0.05
2	34453	1688.121010361077	0.05
2	34455	1688.221010361077	0.05
2	34457	1688.321010361077	0.05
2	34459	1688.421010361077	0.0495
2	34459	1688.421010361077	0.0495
2	34461	1688.521010361077	0.0499
2	34463	1688.621010361077	0.05
2	34465	1688.721010361077	0.05
2	34465	1688.72659170116	0.05
2	34467	1688.821010361077	0.05
2	34469	1688.921010361077	0.05
2	34471	1689.021010361077	0.05
2	34473	1689.121010361077	0.05
2	34475	1689.221010361077	0.05
2	34477	1689.321010361077	0.05
2	34479	1689.421010361077	0.05
2	34479	1689.46043124416	0.05
2	34481	1689.521010361077	0.05
2	34483	1689.621010361077	0.05
2	34485	1689.721010361077	0.05
2	34487	1689.821010361077	0.05
2	34489	1689.921010361077	0.0495
2	34489	1689.921010361077	0.0495
2	34491	1690.021010361077	0.0499
2	34493	1690.121010361077	0.05
2	34493	1690.16117095916	0.05
2	34495	1690.221010361077	0.05
2	34497	1690.321010361077	0.05
2	34499	1690.421010361077	0.05
2	34501	1690.521010361077	0.05
2	34503	1690.621010361077	0.05
2	34505	1690.721010361077	0.05
2	34505	1690.727764060161	0.05
2	34507	1690.821010361077	0.05
2	34509	1690.921010361077	0.05
2	34511	1691.021010361077	0.05
2	34513	1691.121010361077	0.05
2	34515	1691.221010361077	0.05
2	34517	1691.321010361077	0.05
2	34519	1691.421010361077	0.0495
2	34519	1691.421010361077	0.0495
2	34519	1691.430887962161	0.049539510404336
2	34521	1691.521010361077	0.0499
2	34523	1691.621010361077	0.05
2	34525	1691.721010361077	0.05
2	34527	1691.821010361077	0.05
2	34529	1691.921010361077	0.05
2	34531	1692.021010361077	0.05
2	34533	1692.121010361077	0.05
2	34535	1692.221010361077	0.05
2	34535	1692.259867693162	0.05
2	34537	1692.321010361077	0.05
2	34539	1692.421010361077	0.05
2	34541	1692.521010361077	0.05
2	34543	1692.621010361077	0.05
2	34545	1692.721010361077	0.05
2	34547	1692.821010361077	0.05
2	34549	1692.921010361077	0.0495
2	34549	1692.921010361077	0.0495
2	34549	1692.977716537163	0.049726824704344
2	34551	1693.021010361077	0.0499
2	34553	1693.121010361077	0.05
2	34555	1693.221010361077	0.05
2	34557	1693.321010361077	0.05
2	34559	1693.421010361077	0.05
2	34561	1693.521010361077	0.05
2	34563	1693.621010361077	0.05
2	34565	1693.721010361077	0.05
2	34565	1693.755826453164	0.05
2	34567	1693.821010361077	0.05
2	34569	1693.921010361077	0.05
2	34571	1694.021010361077	0.05
2	34573	1694.121010361077	0.05
2	34575	1694.221010361077	0.05
2	34578	1694.321010361077	0.05
2	34580	1694.421010361077	0.05
2	34581	1694.498254270164	0.05
2	34582	1694.521010361077	0.05
2	34584	1694.621010361077	0.05
2	34586	1694.721010361077	0.05
2	34588	1694.821010361077	0.05
2	34590	1694.921010361077	0.05
2	34592	1695.021010361077	0.05
2	34594	1695.121010361077	0.05
2	34596	1695.221010361077	0.05
2	34597	1695.304545949165	0.05
2	34597	1695.321010361077	0.05
3	0	0	0.004
3	944	46.974101355068	0
3	1307	65.039157293449	0.004
3	2301	113.221769724774	0
3	5449	268.873474711024	0.004
3	5697	278.613132056093	0
3	6790	333.120836961537	0.004
3	7045	344.026251962426	0
3	7337	358.467927195221	0.004
3	7421	362.490979034774	0
3	8679	424.182249541402	0.004
3	9175	447.722532401193	0
3	9334	455.640537534311	0.004
3	9560	466.901697749415	0
3	11310	553.559504050838	0.004
3	11472	560.102880096951	0
3	12268	599.719823000431	0.004
3	12345	603.006404694905	0
3	13048	637.988446389366	0.004
3	13887	679.029092608018	0
3	13889	679.08360781345	0.004
3	14627	715.893622388064	0
3	14892	729.008487228287	0.004
3	15664	766.702735075587	0
3	16388	802.475586943763	0.004
3	16757	819.805895312516	0
3	17540	858.640878189247	0.004
3	18214	891.938634099001	0
3	18281	895.230216390963	0.004
3	19969	978.021891647858	0
3	20214	989.97598075348	0.004
3	20216	990.012533992831	0
3	20365	997.415294356601	0.004
3	21968	1076.92389964777	0
3	22682	1111.88332795745	0.004
3	23689	1161.332799190658	0
3	25126	1232.59822877663	0.004
3	25357	1243.021447490835	0
3	25775	1263.851749501879	0.004
3	26152	1281.682588481098	0
3	26367	1292.413043674383	0.004
3	26672	1307.238334263297	0
3	26970	1322.072856697521	0.004
3	27299	1337.785334213752	0
3	27413	1343.408313855555	0.004
3	27990	1372.003966957064	0
3	29203	1432.217722039062	0.004
3	30264	1483.194922212126	0
3	30823	1511.077403949646	0.004
3	31809	1559.022815534153	0
3	32077	1572.274468302858	0.004
3	32516	1593.748999425467	0
3	33530	1644.025498178718	0.004
3	33628	1647.542155456425	0
3	33957	1663.810681728346	0.004
4	0	0	0.004
4	461	23.08057828677	0
4	504	25.152135109733	0.004
4	542	26.962612862598	0
4	647	32.142242418878	0.004
4	1482	73.271828095737	0
4	2133	105.772978325205	0.004
4	2703	133.178711381882	0
4	2870	141.441840724332	0.004
4	3130	154.23298887066	0
4	4001	197.663363841833	0.004
4	4093	201.609093086785	0
4	5111	252.367410779511	0.004
4	5389	265.972008505328	0
4	5390	266.021110309175	0.004
4	5892	288.303023527451	0
4	6808	333.714706893624	0.004
4	7247	354.027469339178	0
4	7731	377.918379731595	0.004
4	7895	385.80785238099	0
4	8246	403.287478216788	0.004
4	9155	446.795412288567	0
4	9727	475.13551720104	0.004
4	10384	507.492201951152	0
4	11219	549.168290410319	0.004
4	11725	572.706905671617	0
4	11980	585.393237230857	0.004
4	12964	633.874780677856	0
4	13131	641.530996415112	0.004
4	13460	657.866198624032	0
4	13498	659.743117803213	0.004
4	14375	703.344493648057	0
4	15006	734.583052906121	0.004
4	15216	744.52950701067	0
4	15456	756.439429077705	0.004
4	15466	756.869071242148	0
4	16195	793.220579413547	0.004
4	17223	843.015487571589	0
4	17443	853.934514212612	0.004
4	18325	897.256912677815	0
4	18465	904.232502004724	0.004
4	19085	935.002111795457	0
4	19670	964.176672981504	0.004
4	19827	971.050347174382	0
4	20172	988.156133249231	0.004
4	20379	997.854355372937	0
4	21615	1059.429895432866	0.004
4	21843	1070.681215929325	0
4	22285	1092.68439292427	0.004
4	22840	1119.077681594974	0
4	23357	1144.854131275371	0.004
4	23420	1147.934495204705	0
4	23812	1167.502411702628	0.004
4	23912	1172.130397059906	0
4	23916	1172.27921550683	0.004
4	24864	1219.561588552889	0
4	24876	1220.15221083532	0.004
4	25452	1247.763861476052	0
4	26037	1276.624205374742	0.004
4	26981	1322.386459488798	0
4	26986	1322.527336402453	0.004
4	28349	1389.86077436824	0
4	28466	1395.666558997106	0.004
4	28665	1405.387478602161	0
4	29356	1438.970637239854	0.004
4	29493	1444.748770301436	0
4	29569	1448.457227498241	0.004
4	31279	1532.852013083229	0
4	31371	1537.428820346346	0.004
4	31405	1538.915840819349	0
4	31449	1541.096164137144	0.004
4	32293	1582.679790817358	0
4	32364	1586.225991813604	0.004
4	32747	1605.192068667551	0
4	32756	1605.603192978541	0.004
4	32851	1610.303633413617	0
4	32990	1617.1828147088	0.004
4	33004	1617.803421959763	0
4	33567	1645.331804450106	0.004
4	33779	1654.964739993797	0
4	33960	1663.893364032963	0.004
4	34577	1694.312687689904	0
5	0	0	0.004
5	944	46.974101355068	0
5	1307	65.039157293449	0.004
5	2301	113.221769724774	0
5	5449	268.873474711024	0.004
5	5697	278.613132056093	0
5	6790	333.120836961537	0.004
5	7045	344.026251962426	0
5	7337	358.467927195221	0.004
5	7421	362.490979034774	0
5	8679	424.182249541402	0.004
5	9175	447.722532401193	0
5	9334	455.640537534311	0.004
5	9560	466.901697749415	0
5	11310	553.559504050838	0.004
5	11472	560.102880096951	0
5	12268	599.719823000431	0.004
5	12345	603.006404694905	0
5	13048	637.988446389366	0.004
5	13887	679.029092608018	0
5	13889	679.08360781345	0.004
5	14627	715.893622388064	0
5	14892	729.008487228287	0.004
5	15664	766.702735075587	0
5	16388	802.475586943763	0.004
5	16757	819.805895312516	0
5	17540	858.640878189247	0.004
5	18214	891.938634099001	0
5	18281	895.230216390963	0.004
5	19969	978.021891647858	0
5	20214	989.97598075348	0.004
5	20216	990.012533992831	0
5	20365	997.415294356601	0.004
5	21968	1076.92389964777	0
5	22682	1111.88332795745	0.004
5	23689	1161.332799190658	0
5	25126	1232.59822877663	0.004
5	25357	1243.021447490835	0
5	25775	1263.851749501879	0.004
5	26152	1281.682588481098	0
5	26367	1292.413043674383	0.004
5	26672	1307.238334263297	0
5	26970	1322.072856697521	0.004
5	27299	1337.785334213752	0
5	27413	1343.408313855555	0.004
5	27990	1372.003966957064	0
5	29203	1432.217722039062	0.004
5	30264	1483.194922212126	0
5	30823	1511.077403949646	0.004
5	31809	1559.022815534153	0
5	32077	1572.274468302858	0.004
5	32516	1593.748999425467	0
5	33530	1644.025498178718	0.004
5	33628	1647.542155456425	0
5	33957	1663.810681728346	0.004

