version 2
run Mysterio_ex2-0-20211024-12:24:19-7354
attr configname Mysterio_ex2
attr datetime 20211024-12:24:19
attr experiment Mysterio_ex2
attr inifile omnetpp.ini
attr iterationvars ""
attr iterationvarsf ""
attr measurement ""
attr network MysterioCommunication2
attr processid 7354
attr repetition 0
attr replication #0
attr resultdir results
attr runnumber 0
attr seedset 0
param *.host[*].mobility.numeroDrones 2
param *.numHosts 2
param *.host[*].osgModel "\"3d/drone.ive.100.scale.0,0,90.rot\""
param *.basestation.osgModel "\"3d/car.ive.50.scale.0,0,90.rot\""
param *.canvasVisualizer.energyStorageVisualizer.displayEnergyStorages true
param *.host[*].hasStatus true
param *.host[*].energyStorage.typename "\"SimpleEpEnergyStorage\""
param *.host[*].wlan[*].radio.energyConsumer.typename "\"StateBasedEpEnergyConsumer\""
param *.host[*].energyManagement.typename "\"SimpleEpEnergyManagement\""
param *.host[*].energyStorage.nominalCapacity 0.05J
param *.host[*].energyManagement.nodeShutdownCapacity "0.1 * energyStorage.nominalCapacity"
param *.host[*].energyManagement.nodeStartCapacity "0.5 * energyStorage.nominalCapacity"
param *.host[*].energyStorage.initialCapacity 0.05J
param *.host[*].energyGenerator.typename "\"AlternatingEpEnergyGenerator\""
param *.host[*].energyGenerator.powerGeneration 4mW
param *.host[*].energyGenerator.sleepInterval exponential(25s)
param *.host[*].energyGenerator.generationInterval exponential(25s)
param *.host[*].mobility.typename "\"UAVMobility\""
param *.host[*].mobility.changeInterval 1s
param *.host[*].mobility.initialMovementHeading "uniform(0deg, 360deg)"
param *.host[*].mobility.initialMovementElevation "uniform(-90deg, 90deg)"
param *.host[*].mobility.angleDelta uniform(-10deg,10deg)
param *.host[*].mobility.rotationAxisAngle uniform(-10deg,10deg)
param *.host[*].mobility.speed uniform(10mps,20mps)
param *.host[*].mobility.faceForward false
param *.host[*].mobility.initialX 220m
param *.host[*].mobility.initialY 220m
param *.host[*].mobility.initialZ 80m
param *.visualizer.osgVisualizer.typename "\"IntegratedOsgVisualizer\""
param *.visualizer.osgVisualizer.sceneVisualizer.clearColor "\"skyblue\""
param *.visualizer.osgVisualizer.sceneVisualizer.sceneImage "\"showcases/desert\""
param *.visualizer.osgVisualizer.sceneVisualizer.sceneImageSize 5000m
param *.visualizer.osgVisualizer.sceneVisualizer.axisLength 1000m
param *.visualizer.osgVisualizer.sceneVisualizer.sceneMinX -2000m
param *.visualizer.osgVisualizer.sceneVisualizer.sceneMinY -2000m
param *.visualizer.osgVisualizer.sceneVisualizer.sceneMinZ 0m
param *.visualizer.osgVisualizer.sceneVisualizer.sceneMaxX 3000m
param *.visualizer.osgVisualizer.sceneVisualizer.sceneMaxY 3000m
param *.visualizer.osgVisualizer.sceneVisualizer.sceneMaxZ 1000m
param *.visualizer.osgVisualizer.networkNodeVisualizer.displayModuleName false
param *.visualizer.*.mobilityVisualizer.displayMobility true
param *.visualizer.*.mobilityVisualizer.displayPositions true
param *.visualizer.*.mobilityVisualizer.displayOrientations false
param *.visualizer.*.mobilityVisualizer.displayVelocities true
param *.visualizer.*.mobilityVisualizer.displayMovementTrails true
param *.visualizer.*.mobilityVisualizer.animationSpeed 3
param **.constraintAreaMinX 0m
param **.constraintAreaMinY 0m
param **.constraintAreaMinZ 0m
param **.constraintAreaMaxX 1000m
param **.constraintAreaMaxY 1000m
param **.constraintAreaMaxZ 1000m
param **.networkConfiguratorModule "\"\""

vector 0 MysterioCommunication2.host[0].energyStorage residualEnergyCapacity:vector ETV
attr interpolationmode linear
attr source residualEnergyCapacityChanged
attr title "Residual energy capacity, vector"
vector 1 MysterioCommunication2.host[0].energyGenerator powerGeneration:vector ETV
attr interpolationmode sample-hold
attr source powerGenerationChanged
attr title "Power generation, vector"
vector 2 MysterioCommunication2.host[1].energyStorage residualEnergyCapacity:vector ETV
attr interpolationmode linear
attr source residualEnergyCapacityChanged
attr title "Residual energy capacity, vector"
vector 3 MysterioCommunication2.host[1].energyGenerator powerGeneration:vector ETV
attr interpolationmode sample-hold
attr source powerGenerationChanged
attr title "Power generation, vector"
vector 4 MysterioCommunication2.host[0].energyStorage powerGeneration:vector ETV
attr interpolationmode sample-hold
attr source powerGenerationChanged
attr title "Power generation, vector"
vector 5 MysterioCommunication2.host[1].energyStorage powerGeneration:vector ETV
attr interpolationmode sample-hold
attr source powerGenerationChanged
attr title "Power generation, vector"
0	0	0	0.05
0	0	0.1	0.05
0	2	0.152066161	0.05
0	3	0.2	0.05
0	5	0.3	0.05
0	7	0.4	0.05
0	9	0.5	0.05
0	11	0.6	0.05
0	12	0.606287683	0.05
0	13	0.7	0.05
0	15	0.8	0.05
0	17	0.9	0.05
0	19	1	0.05
0	21	1.1	0.05
0	23	1.2	0.05
0	24	1.285738738	0.05
0	25	1.3	0.05
0	27	1.4	0.05
0	29	1.5	0.05
0	31	1.6	0.05
0	33	1.7	0.05
0	34	1.777444	0.05
0	35	1.8	0.05
0	37	1.9	0.05
0	39	2	0.05
0	41	2.1	0.05
0	43	2.2	0.05
0	45	2.3	0.05
0	46	2.316180514	0.05
0	47	2.4	0.05
0	49	2.5	0.05
0	51	2.6	0.05
0	53	2.7	0.05
0	54	2.732698474	0.05
0	55	2.8	0.05
0	57	2.9	0.05
0	59	3	0.05
0	60	3.030838594	0.05
0	61	3.1	0.05
0	63	3.2	0.05
0	65	3.3	0.05
0	67	3.4	0.05
0	69	3.5	0.05
0	70	3.572425054	0.05
0	71	3.6	0.05
0	73	3.7	0.05
0	75	3.8	0.05
0	77	3.9	0.05
0	79	4	0.05
0	80	4.03666405	0.05
0	81	4.1	0.05
0	83	4.2	0.05
0	85	4.3	0.05
0	86	4.329953893	0.05
0	87	4.4	0.05
0	89	4.5	0.05
0	91	4.6	0.05
0	92	4.623096514	0.05
0	93	4.7	0.05
0	95	4.8	0.05
0	97	4.9	0.05
0	99	5	0.05
0	101	5.1	0.05
0	102	5.18626012	0.05
0	103	5.2	0.05
0	105	5.3	0.05
0	107	5.4	0.05
0	109	5.5	0.05
0	111	5.6	0.05
0	113	5.7	0.05
0	114	5.761922479	0.05
0	115	5.8	0.05
0	117	5.9	0.05
0	119	6	0.05
0	121	6.1	0.05
0	123	6.2	0.05
0	125	6.3	0.05
0	127	6.4	0.05
0	128	6.430727611	0.05
0	129	6.5	0.05
0	131	6.6	0.05
0	133	6.7	0.05
0	135	6.8	0.05
0	137	6.9	0.05
0	138	6.970744165	0.05
0	139	7	0.05
0	141	7.1	0.05
0	143	7.2	0.05
0	145	7.3	0.05
0	147	7.4	0.05
0	149	7.5	0.05
0	150	7.526045806	0.05
0	151	7.6	0.05
0	153	7.7	0.05
0	155	7.8	0.05
0	157	7.9	0.05
0	159	8	0.05
0	161	8.1	0.05
0	162	8.192794918	0.05
0	163	8.2	0.05
0	165	8.3	0.05
0	167	8.4	0.05
0	169	8.5	0.05
0	171	8.6	0.05
0	173	8.7	0.05
0	175	8.8	0.05
0	176	8.836103458	0.05
0	177	8.9	0.05
0	179	9	0.05
0	181	9.1	0.05
0	183	9.2	0.05
0	185	9.3	0.05
0	187	9.4	0.05
0	188	9.457810225	0.05
0	189	9.5	0.05
0	191	9.6	0.05
0	193	9.7	0.05
0	195	9.8	0.05
0	197	9.9	0.05
0	199	10	0.05
0	201	10.1	0.05
0	202	10.129484446	0.05
0	203	10.2	0.05
0	205	10.3	0.05
0	207	10.4	0.05
0	209	10.5	0.05
0	211	10.6	0.05
0	212	10.694428558	0.05
0	213	10.7	0.05
0	215	10.8	0.05
0	217	10.9	0.05
0	218	10.922334955	0.05
0	219	11	0.05
0	221	11.1	0.05
0	223	11.2	0.05
0	225	11.3	0.05
0	226	11.379511957	0.05
0	227	11.4	0.05
0	229	11.5	0.05
0	231	11.6	0.05
0	233	11.7	0.05
0	235	11.8	0.05
0	237	11.9	0.05
0	238	11.942002879	0.05
0	239	12	0.05
0	241	12.1	0.05
0	243	12.2	0.05
0	245	12.3	0.05
0	247	12.4	0.05
0	249	12.5	0.05
0	251	12.6	0.05
0	252	12.624599698	0.05
0	253	12.7	0.05
0	255	12.8	0.05
0	257	12.9	0.05
0	259	13	0.05
0	261	13.1	0.05
0	263	13.2	0.05
0	265	13.3	0.05
0	266	13.382577361	0.05
0	267	13.4	0.05
0	269	13.5	0.05
0	271	13.6	0.05
0	273	13.7	0.05
0	275	13.8	0.05
0	277	13.9	0.05
0	279	14	0.05
0	280	14.077026922	0.05
0	281	14.1	0.05
0	283	14.2	0.05
0	285	14.3	0.05
0	287	14.4	0.05
0	289	14.5	0.05
0	291	14.6	0.05
0	293	14.7	0.05
0	294	14.717336287	0.05
0	295	14.8	0.05
0	297	14.9	0.05
0	299	15	0.05
0	301	15.1	0.05
0	303	15.2	0.05
0	305	15.3	0.05
0	307	15.4	0.05
0	309	15.5	0.05
0	310	15.595421296	0.05
0	311	15.6	0.05
0	313	15.7	0.05
0	315	15.8	0.05
0	317	15.9	0.05
0	319	16	0.05
0	321	16.1	0.05
0	323	16.2	0.05
0	325	16.3	0.05
0	327	16.4	0.05
0	329	16.5	0.05
0	330	16.505470591	0.05
0	331	16.6	0.05
0	333	16.7	0.05
0	335	16.8	0.05
0	337	16.9	0.05
0	339	17	0.05
0	340	17.026904626	0.05
0	341	17.1	0.05
0	343	17.2	0.05
0	345	17.3	0.05
0	347	17.4	0.05
0	348	17.452629442	0.05
0	349	17.5	0.05
0	351	17.6	0.05
0	353	17.7	0.05
0	355	17.8	0.05
0	357	17.9	0.05
0	359	18	0.05
0	361	18.1	0.05
0	362	18.138332236	0.05
0	363	18.2	0.05
0	365	18.3	0.05
0	367	18.4	0.05
0	369	18.5	0.05
0	371	18.6	0.05
0	373	18.7	0.05
0	374	18.714901906	0.05
0	375	18.8	0.05
0	377	18.9	0.05
0	379	19	0.05
0	381	19.1	0.05
0	383	19.2	0.05
0	385	19.3	0.05
0	386	19.392606568	0.05
0	387	19.4	0.05
0	389	19.5	0.05
0	391	19.6	0.05
0	393	19.7	0.05
0	395	19.8	0.05
0	397	19.9	0.05
0	399	20	0.05
0	400	20.007618382	0.05
0	401	20.1	0.05
0	403	20.2	0.05
0	405	20.3	0.05
0	407	20.4	0.05
0	409	20.5	0.05
0	410	20.537827405	0.05
0	411	20.6	0.05
0	413	20.7	0.05
0	415	20.8	0.05
0	417	20.9	0.05
0	418	20.96524255	0.05
0	419	21	0.05
0	421	21.1	0.05
0	423	21.2	0.05
0	425	21.3	0.05
0	427	21.4	0.05
0	429	21.5	0.05
0	430	21.515054062	0.05
0	431	21.6	0.05
0	433	21.7	0.05
0	435	21.8	0.05
0	437	21.9	0.05
0	439	22	0.05
0	440	22.042945744	0.05
0	441	22.1	0.05
0	443	22.2	0.05
0	445	22.3	0.05
0	447	22.4	0.05
0	449	22.5	0.05
0	450	22.529009884	0.05
0	451	22.6	0.05
0	453	22.7	0.05
0	455	22.8	0.05
0	457	22.9	0.05
0	459	23	0.05
0	460	23.006857615	0.05
0	461	23.08057828677	0.05
0	462	23.1	0.05
0	464	23.2	0.05
0	466	23.3	0.05
0	468	23.4	0.05
0	469	23.488289704	0.05
0	470	23.5	0.05
0	472	23.6	0.05
0	474	23.7	0.05
0	476	23.8	0.05
0	478	23.9	0.05
0	479	23.932378024	0.05
0	480	24	0.05
0	482	24.1	0.05
0	484	24.2	0.05
0	486	24.3	0.05
0	488	24.4	0.0495
0	488	24.4	0.0495
0	489	24.467171206	0.0495
0	490	24.5	0.0495
0	492	24.6	0.0495
0	494	24.7	0.0495
0	495	24.767151253	0.0495
0	496	24.8	0.0495
0	498	24.9	0.0495
0	500	25	0.0495
0	502	25.1	0.0495
0	504	25.2	0.0495
0	505	25.201918432	0.0495
0	506	25.3	0.0495
0	508	25.4	0.0495
0	510	25.5	0.0495
0	512	25.6	0.0495
0	513	25.624800127	0.0495
0	514	25.654787379751	0.049005
0	514	25.654787379751	0.049005
0	515	25.7	0.049185850480996
0	517	25.778537379751	0.0495
0	518	25.8	0.049585850480996
0	519	25.895444782	0.049967629608996
0	520	25.9	0.049985850480996
0	522	25.903537379751	0.05
0	523	26	0.05
0	525	26.1	0.05
0	527	26.2	0.05
0	529	26.3	0.05
0	530	26.373971248	0.05
0	531	26.4	0.05
0	533	26.5	0.05
0	535	26.6	0.05
0	536	26.663433847	0.05
0	537	26.7	0.05
0	539	26.8	0.05
0	541	26.9	0.05
0	543	27	0.05
0	545	27.1	0.05
0	547	27.2	0.05
0	549	27.3	0.05
0	550	27.35941636	0.05
0	551	27.4	0.05
0	553	27.5	0.05
0	555	27.6	0.05
0	557	27.7	0.05
0	558	27.774760849	0.05
0	559	27.8	0.05
0	561	27.9	0.05
0	563	28	0.05
0	564	28.037542087	0.05
0	565	28.1	0.05
0	567	28.2	0.05
0	569	28.3	0.05
0	571	28.4	0.05
0	573	28.5	0.05
0	574	28.580608675	0.05
0	575	28.6	0.05
0	577	28.7	0.05
0	579	28.8	0.05
0	580	28.861307014	0.05
0	581	28.9	0.05
0	583	29	0.05
0	585	29.1	0.05
0	587	29.2	0.05
0	589	29.3	0.05
0	591	29.4	0.05
0	592	29.460556444	0.05
0	593	29.5	0.05
0	595	29.6	0.05
0	597	29.7	0.05
0	599	29.8	0.05
0	601	29.9	0.05
0	603	30	0.05
0	605	30.1	0.05
0	606	30.110375704	0.05
0	607	30.2	0.05
0	609	30.3	0.05
0	611	30.4	0.05
0	613	30.5	0.05
0	615	30.6	0.05
0	616	30.657146035	0.05
0	617	30.7	0.05
0	619	30.8	0.05
0	621	30.9	0.05
0	623	31	0.05
0	625	31.1	0.05
0	626	31.193917429	0.05
0	627	31.2	0.05
0	629	31.3	0.05
0	631	31.4	0.05
0	633	31.5	0.05
0	635	31.6	0.05
0	636	31.662672343	0.05
0	637	31.7	0.05
0	639	31.8	0.05
0	641	31.9	0.05
0	643	32	0.05
0	645	32.1	0.05
0	646	32.197653748	0.05
0	647	32.2	0.05
0	649	32.3	0.05
0	651	32.4	0.05
0	653	32.5	0.05
0	655	32.6	0.05
0	657	32.7	0.05
0	659	32.8	0.05
0	660	32.875506109	0.05
0	661	32.9	0.05
0	663	33	0.05
0	665	33.1	0.05
0	667	33.2	0.05
0	669	33.3	0.05
0	670	33.338373688	0.05
0	671	33.4	0.05
0	673	33.5	0.05
0	675	33.6	0.05
0	677	33.7	0.05
0	678	33.799703953	0.05
0	679	33.8	0.05
0	681	33.9	0.05
0	683	34	0.05
0	685	34.1	0.05
0	687	34.2	0.05
0	689	34.3	0.05
0	690	34.312999972	0.05
0	691	34.4	0.05
0	693	34.5	0.05
0	695	34.6	0.05
0	697	34.7	0.05
0	699	34.8	0.05
0	700	34.804491586	0.05
0	701	34.9	0.05
0	703	35	0.05
0	705	35.1	0.05
0	707	35.2	0.05
0	708	35.29309186	0.05
0	709	35.3	0.05
0	711	35.4	0.05
0	713	35.5	0.05
0	715	35.6	0.05
0	717	35.7	0.05
0	718	35.790140764	0.05
0	719	35.8	0.05
0	721	35.9	0.05
0	723	36	0.05
0	725	36.1	0.05
0	727	36.2	0.05
0	728	36.299357074	0.05
0	729	36.3	0.05
0	731	36.4	0.05
0	733	36.5	0.05
0	735	36.6	0.05
0	737	36.7	0.05
0	739	36.8	0.05
0	740	36.821432113	0.05
0	741	36.9	0.05
0	743	37	0.05
0	745	37.1	0.05
0	746	37.1100538	0.05
0	747	37.2	0.05
0	749	37.3	0.05
0	751	37.4	0.05
0	753	37.5	0.05
0	755	37.6	0.05
0	756	37.685210716	0.05
0	757	37.7	0.05
0	759	37.8	0.05
0	761	37.9	0.05
0	763	38	0.05
0	765	38.1	0.05
0	766	38.173976797	0.05
0	767	38.2	0.05
0	769	38.3	0.05
0	771	38.4	0.05
0	772	38.472321274	0.05
0	773	38.5	0.05
0	775	38.6	0.05
0	777	38.7	0.05
0	779	38.8	0.05
0	781	38.9	0.05
0	783	39	0.05
0	784	39.071425798	0.05
0	785	39.1	0.05
0	787	39.2	0.05
0	789	39.3	0.05
0	791	39.4	0.05
0	793	39.5	0.05
0	795	39.6	0.05
0	797	39.7	0.05
0	798	39.751573324	0.05
0	799	39.8	0.05
0	801	39.859049473309	0.05
0	802	39.9	0.05
0	804	40	0.05
0	806	40.1	0.05
0	808	40.2	0.05
0	810	40.3	0.05
0	811	40.398872221	0.05
0	812	40.4	0.05
0	814	40.5	0.05
0	816	40.6	0.05
0	818	40.7	0.05
0	820	40.8	0.05
0	822	40.9	0.05
0	823	40.950945934	0.05
0	824	41	0.05
0	826	41.1	0.0495
0	826	41.1	0.0495
0	828	41.2	0.0495
0	830	41.3	0.0495
0	831	41.382754894	0.0495
0	832	41.4	0.0495
0	834	41.5	0.0495
0	836	41.6	0.0495
0	838	41.7	0.0495
0	840	41.8	0.0495
0	841	41.851678072	0.0495
0	842	41.9	0.0495
0	844	42	0.0495
0	846	42.1	0.0495
0	848	42.2	0.0495
0	850	42.3	0.0495
0	852	42.4	0.0495
0	854	42.5	0.0495
0	855	42.562661203	0.049005
0	855	42.562661203	0.049005
0	856	42.6	0.049005
0	858	42.7	0.049005
0	860	42.8	0.049005
0	862	42.9	0.049005
0	864	43	0.049005
0	866	43.1	0.049005
0	868	43.2	0.049005
0	869	43.25186398	0.049005
0	870	43.3	0.049005
0	872	43.4	0.049005
0	874	43.5	0.049005
0	876	43.6	0.049005
0	878	43.7	0.049005
0	880	43.8	0.049005
0	881	43.832473564	0.049005
0	882	43.9	0.049005
0	884	44	0.04851495
0	884	44	0.04851495
0	886	44.1	0.04851495
0	888	44.2	0.04851495
0	890	44.3	0.04851495
0	891	44.389230691	0.04851495
0	892	44.4	0.04851495
0	894	44.5	0.04851495
0	896	44.6	0.04851495
0	898	44.7	0.04851495
0	900	44.8	0.04851495
0	902	44.9	0.04851495
0	903	44.936708809	0.04851495
0	904	45	0.04851495
0	906	45.1	0.04851495
0	908	45.2	0.04851495
0	909	45.206493538	0.04851495
0	910	45.3	0.04851495
0	912	45.4	0.0480298005
0	912	45.4	0.0480298005
0	914	45.5	0.0480298005
0	916	45.6	0.0480298005
0	917	45.603354328	0.0480298005
0	918	45.7	0.0480298005
0	920	45.8	0.0480298005
0	921	45.876735487	0.0480298005
0	922	45.9	0.0480298005
0	924	46	0.0480298005
0	926	46.1	0.0480298005
0	928	46.2	0.0480298005
0	930	46.3	0.0480298005
0	931	46.395698281	0.0480298005
0	932	46.4	0.0480298005
0	934	46.5	0.0480298005
0	936	46.6	0.0480298005
0	937	46.694334838	0.0480298005
0	938	46.7	0.047549502495
0	938	46.7	0.047549502495
0	940	46.8	0.047549502495
0	942	46.9	0.047549502495
0	945	47	0.047549502495
0	947	47.1	0.047549502495
0	949	47.2	0.047549502495
0	950	47.280512917	0.047549502495
0	951	47.3	0.047549502495
0	953	47.4	0.047549502495
0	955	47.5	0.047549502495
0	957	47.6	0.047549502495
0	959	47.7	0.047549502495
0	961	47.8	0.047549502495
0	962	47.852976895	0.047549502495
0	963	47.9	0.047549502495
0	965	48	0.047549502495
0	967	48.1	0.047549502495
0	969	48.2	0.047549502495
0	971	48.3	0.047549502495
0	972	48.381784672	0.047549502495
0	973	48.4	0.047549502495
0	975	48.5	0.047549502495
0	977	48.6	0.047549502495
0	979	48.7	0.047549502495
0	981	48.8	0.047549502495
0	983	48.9	0.047549502495
0	984	48.996541252	0.047549502495
0	985	49	0.047549502495
0	987	49.1	0.047549502495
0	989	49.149443344006	0.047549502495
0	990	49.2	0.047751729118976
0	992	49.262067720256	0.048
0	993	49.3	0.048151729118976
0	995	49.387067720256	0.0485
0	996	49.4	0.048551729118976
0	998	49.5	0.048462211827786
0	998	49.5	0.048462211827786
0	1000	49.512067720256	0.049
0	1001	49.6	0.049351729118976
0	1003	49.637067720256	0.0495
0	1003	49.682945407	0.049683510746976
0	1004	49.7	0.049751729118976
0	1006	49.762067720256	0.05
0	1007	49.8	0.05
0	1009	49.9	0.05
0	1011	50	0.05
0	1013	50.1	0.05
0	1015	50.2	0.05
0	1017	50.3	0.05
0	1018	50.367210994	0.05
0	1019	50.4	0.05
0	1021	50.5	0.05
0	1023	50.6	0.05
0	1026	50.7	0.05
0	1028	50.8	0.0495
0	1028	50.8	0.0495
0	1030	50.9	0.0499
0	1030	50.945370226	0.05
0	1032	51	0.05
0	1034	51.1	0.05
0	1036	51.2	0.05
0	1038	51.3	0.05
0	1040	51.4	0.05
0	1041	51.488578501	0.05
0	1042	51.5	0.05
0	1044	51.6	0.05
0	1046	51.7	0.05
0	1048	51.8	0.05
0	1050	51.9	0.05
0	1052	52	0.05
0	1054	52.1	0.05
0	1054	52.154701609	0.05
0	1056	52.2	0.0495
0	1056	52.2	0.0495
0	1058	52.3	0.0499
0	1060	52.4	0.05
0	1062	52.5	0.05
0	1064	52.6	0.05
0	1064	52.628810548	0.05
0	1066	52.7	0.05
0	1068	52.8	0.05
0	1070	52.9	0.05
0	1072	53	0.05
0	1074	53.1	0.05
0	1075	53.185059214	0.05
0	1076	53.2	0.05
0	1078	53.3	0.05
0	1080	53.4	0.05
0	1082	53.5	0.05
0	1084	53.6	0.05
0	1086	53.7	0.0495
0	1086	53.7	0.0495
0	1088	53.8	0.0499
0	1088	53.805115063	0.049920460252
0	1090	53.9	0.05
0	1092	54	0.05
0	1094	54.1	0.05
0	1096	54.2	0.05
0	1098	54.3	0.05
0	1100	54.4	0.05
0	1100	54.440052787	0.05
0	1102	54.5	0.05
0	1104	54.6	0.05
0	1106	54.7	0.05
0	1108	54.8	0.05
0	1110	54.9	0.05
0	1112	55	0.05
0	1112	55.074220576	0.05
0	1114	55.1	0.0495
0	1114	55.1	0.0495
0	1116	55.2	0.0499
0	1118	55.3	0.05
0	1120	55.4	0.05
0	1122	55.5	0.05
0	1124	55.6	0.05
0	1124	55.668743668	0.05
0	1126	55.7	0.05
0	1128	55.8	0.05
0	1130	55.9	0.05
0	1132	56	0.05
0	1134	56.1	0.05
0	1136	56.2	0.05
0	1136	56.236790719	0.05
0	1138	56.3	0.05
0	1140	56.4	0.05
0	1142	56.5	0.05
0	1144	56.6	0.0495
0	1144	56.6	0.0495
0	1145	56.686093072	0.049844372288
0	1146	56.7	0.0499
0	1147	56.769634267061	0.05
0	1149	56.869634267061	0.05
0	1151	56.969634267061	0.05
0	1151	56.976838795	0.05
0	1153	57.069634267061	0.05
0	1155	57.169634267061	0.05
0	1157	57.269634267061	0.05
0	1159	57.369634267061	0.05
0	1160	57.432765949	0.05
0	1161	57.469634267061	0.05
0	1163	57.569634267061	0.05
0	1165	57.669634267061	0.05
0	1167	57.769634267061	0.05
0	1169	57.869634267061	0.05
0	1171	57.969634267061	0.05
0	1173	58.069634267061	0.05
0	1174	58.147204753	0.05
0	1175	58.169634267061	0.05
0	1177	58.269634267061	0.05
0	1179	58.369634267061	0.05
0	1181	58.469634267061	0.05
0	1183	58.569634267061	0.05
0	1185	58.669634267061	0.05
0	1187	58.769634267061	0.05
0	1187	58.7824582	0.05
0	1189	58.869634267061	0.05
0	1191	58.969634267061	0.05
0	1193	59.069634267061	0.05
0	1195	59.169634267061	0.05
0	1197	59.269634267061	0.05
0	1199	59.369634267061	0.05
0	1200	59.451082426	0.05
0	1201	59.469634267061	0.05
0	1203	59.569634267061	0.05
0	1205	59.669634267061	0.05
0	1207	59.769634267061	0.05
0	1209	59.869634267061	0.05
0	1210	59.942403205	0.05
0	1211	59.969634267061	0.05
0	1213	60.069634267061	0.05
0	1215	60.169634267061	0.05
0	1217	60.269634267061	0.05
0	1219	60.369634267061	0.05
0	1220	60.466007425	0.05
0	1221	60.469634267061	0.05
0	1223	60.569634267061	0.05
0	1225	60.669634267061	0.05
0	1227	60.769634267061	0.05
0	1229	60.869634267061	0.05
0	1231	60.969634267061	0.05
0	1232	61.010645596	0.05
0	1233	61.069634267061	0.05
0	1235	61.169634267061	0.05
0	1237	61.269634267061	0.05
0	1239	61.369634267061	0.05
0	1241	61.469634267061	0.05
0	1243	61.569634267061	0.05
0	1244	61.626198619	0.05
0	1245	61.669634267061	0.05
0	1247	61.769634267061	0.05
0	1249	61.869634267061	0.05
0	1251	61.969634267061	0.05
0	1253	62.069634267061	0.05
0	1254	62.129126176	0.05
0	1255	62.169634267061	0.05
0	1257	62.269634267061	0.05
0	1259	62.369634267061	0.05
0	1261	62.469634267061	0.05
0	1262	62.553176602	0.05
0	1263	62.569634267061	0.05
0	1265	62.669634267061	0.05
0	1267	62.769634267061	0.05
0	1268	62.80601083	0.05
0	1269	62.869634267061	0.05
0	1271	62.969634267061	0.05
0	1273	63.069634267061	0.05
0	1275	63.169634267061	0.05
0	1277	63.269634267061	0.05
0	1279	63.369634267061	0.05
0	1281	63.469634267061	0.05
0	1283	63.569634267061	0.05
0	1285	63.669634267061	0.05
0	1287	63.769634267061	0.05
0	1288	63.84739609	0.05
0	1289	63.869634267061	0.05
0	1291	63.969634267061	0.05
0	1293	64.069634267061	0.05
0	1295	64.169634267061	0.05
0	1297	64.269634267061	0.05
0	1298	64.33668307	0.05
0	1299	64.369634267061	0.05
0	1301	64.469634267061	0.05
0	1303	64.569634267061	0.05
0	1304	64.61837209	0.05
0	1305	64.669634267061	0.05
0	1307	64.769634267061	0.05
0	1309	64.869634267061	0.05
0	1311	64.969634267061	0.05
0	1312	65.05759999	0.05
0	1313	65.069634267061	0.05
0	1315	65.169634267061	0.05
0	1317	65.269634267061	0.05
0	1319	65.369634267061	0.05
0	1320	65.459047129	0.05
0	1321	65.469634267061	0.05
0	1323	65.569634267061	0.05
0	1325	65.669634267061	0.05
0	1326	65.750747215	0.05
0	1327	65.769634267061	0.05
0	1329	65.869634267061	0.05
0	1331	65.969634267061	0.05
0	1333	66.069634267061	0.05
0	1335	66.169634267061	0.05
0	1336	66.234219385	0.05
0	1337	66.269634267061	0.05
0	1339	66.369634267061	0.05
0	1341	66.469634267061	0.05
0	1343	66.569634267061	0.05
0	1344	66.661721431	0.05
0	1345	66.669634267061	0.05
0	1347	66.769634267061	0.05
0	1349	66.869634267061	0.05
0	1350	66.945492784	0.05
0	1351	66.969634267061	0.05
0	1353	67.069634267061	0.05
0	1355	67.169634267061	0.05
0	1357	67.269634267061	0.05
0	1359	67.369634267061	0.05
0	1361	67.469634267061	0.05
0	1363	67.569634267061	0.05
0	1363	67.58210794	0.05
0	1365	67.669634267061	0.05
0	1367	67.769634267061	0.05
0	1369	67.869634267061	0.05
0	1371	67.969634267061	0.05
0	1373	68.069634267061	0.05
0	1375	68.169634267061	0.05
0	1375	68.180515048	0.05
0	1377	68.269634267061	0.05
0	1379	68.369634267061	0.05
0	1381	68.469634267061	0.05
0	1383	68.569634267061	0.05
0	1385	68.669634267061	0.05
0	1387	68.769634267061	0.05
0	1388	68.823413695	0.05
0	1389	68.869634267061	0.05
0	1391	68.969634267061	0.05
0	1393	69.069634267061	0.05
0	1395	69.169634267061	0.05
0	1397	69.269634267061	0.05
0	1399	69.369634267061	0.05
0	1400	69.425779156	0.05
0	1401	69.469634267061	0.05
0	1403	69.569634267061	0.05
0	1405	69.669634267061	0.05
0	1407	69.769634267061	0.05
0	1409	69.869634267061	0.05
0	1411	69.969634267061	0.05
0	1412	70.003662355	0.05
0	1413	70.069634267061	0.05
0	1415	70.169634267061	0.05
0	1417	70.269634267061	0.05
0	1419	70.369634267061	0.05
0	1421	70.469634267061	0.05
0	1423	70.569634267061	0.05
0	1425	70.669634267061	0.05
0	1427	70.769634267061	0.05
0	1427	70.77133516	0.05
0	1429	70.869634267061	0.05
0	1431	70.969634267061	0.05
0	1433	71.069634267061	0.05
0	1435	71.169634267061	0.05
0	1437	71.269634267061	0.05
0	1439	71.369634267061	0.05
0	1441	71.469634267061	0.05
0	1442	71.544411637	0.05
0	1443	71.569634267061	0.05
0	1445	71.669634267061	0.05
0	1447	71.769634267061	0.05
0	1449	71.869634267061	0.05
0	1451	71.969634267061	0.05
0	1453	72.069634267061	0.05
0	1454	72.127569562	0.05
0	1455	72.169634267061	0.05
0	1457	72.269634267061	0.05
0	1459	72.369634267061	0.05
0	1461	72.469634267061	0.05
0	1463	72.569634267061	0.05
0	1464	72.591993061	0.05
0	1465	72.669634267061	0.05
0	1467	72.769634267061	0.05
0	1469	72.869634267061	0.05
0	1471	72.969634267061	0.05
0	1473	73.069634267061	0.05
0	1473	73.073055814	0.05
0	1475	73.169634267061	0.05
0	1477	73.269634267061	0.05
0	1479	73.369634267061	0.05
0	1481	73.469634267061	0.05
0	1483	73.569634267061	0.05
0	1485	73.669634267061	0.05
0	1487	73.769634267061	0.05
0	1489	73.869634267061	0.05
0	1490	73.901327704	0.05
0	1491	73.969634267061	0.05
0	1493	74.069634267061	0.05
0	1495	74.169634267061	0.05
0	1497	74.269634267061	0.05
0	1499	74.369634267061	0.05
0	1501	74.469634267061	0.05
0	1501	74.472726799	0.05
0	1503	74.569634267061	0.05
0	1505	74.669634267061	0.05
0	1507	74.769634267061	0.05
0	1509	74.869634267061	0.05
0	1511	74.969634267061	0.05
0	1512	75.028509256	0.05
0	1513	75.069634267061	0.05
0	1515	75.169634267061	0.05
0	1517	75.269634267061	0.05
0	1519	75.369634267061	0.05
0	1521	75.469634267061	0.05
0	1522	75.561971902	0.05
0	1523	75.569634267061	0.05
0	1525	75.669634267061	0.05
0	1527	75.769634267061	0.05
0	1529	75.869634267061	0.05
0	1531	75.969634267061	0.05
0	1533	76.069634267061	0.05
0	1535	76.169634267061	0.05
0	1536	76.208039089	0.05
0	1537	76.269634267061	0.05
0	1539	76.369634267061	0.05
0	1541	76.469634267061	0.05
0	1543	76.569634267061	0.05
0	1545	76.669634267061	0.05
0	1547	76.769634267061	0.05
0	1548	76.84283803	0.05
0	1549	76.869634267061	0.05
0	1551	76.969634267061	0.05
0	1553	77.069634267061	0.05
0	1555	77.169634267061	0.05
0	1557	77.269634267061	0.05
0	1558	77.319547519	0.05
0	1559	77.369634267061	0.05
0	1561	77.469634267061	0.05
0	1563	77.569634267061	0.05
0	1565	77.669634267061	0.05
0	1567	77.769634267061	0.05
0	1568	77.851668313	0.05
0	1569	77.869634267061	0.05
0	1571	77.969634267061	0.05
0	1573	78.069634267061	0.05
0	1575	78.169634267061	0.05
0	1577	78.269634267061	0.05
0	1578	78.36498598	0.05
0	1579	78.369634267061	0.05
0	1581	78.469634267061	0.05
0	1583	78.569634267061	0.05
0	1585	78.669634267061	0.05
0	1587	78.769634267061	0.05
0	1589	78.869634267061	0.05
0	1591	78.969634267061	0.05
0	1593	79.069634267061	0.05
0	1594	79.109104465	0.05
0	1595	79.169634267061	0.05
0	1597	79.269634267061	0.05
0	1599	79.369634267061	0.05
0	1601	79.469634267061	0.05
0	1603	79.569634267061	0.05
0	1604	79.607133517	0.05
0	1605	79.669634267061	0.05
0	1607	79.769634267061	0.05
0	1609	79.869634267061	0.05
0	1611	79.969634267061	0.05
0	1613	80.069634267061	0.05
0	1614	80.164540981	0.05
0	1615	80.169634267061	0.05
0	1617	80.269634267061	0.05
0	1619	80.369634267061	0.05
0	1621	80.469634267061	0.05
0	1623	80.569634267061	0.05
0	1625	80.669634267061	0.05
0	1627	80.769634267061	0.05
0	1627	80.778058819	0.05
0	1629	80.869634267061	0.05
0	1631	80.969634267061	0.05
0	1633	81.069634267061	0.05
0	1635	81.169634267061	0.05
0	1636	81.204295144	0.05
0	1637	81.269634267061	0.05
0	1639	81.369634267061	0.05
0	1641	81.469634267061	0.05
0	1643	81.569634267061	0.05
0	1645	81.669634267061	0.05
0	1646	81.711446458	0.05
0	1647	81.769634267061	0.05
0	1649	81.869634267061	0.05
0	1651	81.969634267061	0.05
0	1653	82.069634267061	0.05
0	1655	82.169634267061	0.05
0	1656	82.185617158	0.05
0	1657	82.269634267061	0.05
0	1659	82.369634267061	0.05
0	1661	82.469634267061	0.05
0	1663	82.569634267061	0.05
0	1665	82.669634267061	0.05
0	1666	82.756746898	0.05
0	1667	82.769634267061	0.05
0	1669	82.869634267061	0.05
0	1671	82.969634267061	0.05
0	1673	83.069634267061	0.05
0	1675	83.169634267061	0.05
0	1677	83.269634267061	0.05
0	1678	83.29561276	0.05
0	1679	83.369634267061	0.05
0	1681	83.469634267061	0.05
0	1683	83.569634267061	0.05
0	1685	83.669634267061	0.05
0	1687	83.769634267061	0.05
0	1688	83.82401362	0.05
0	1689	83.869634267061	0.05
0	1691	83.969634267061	0.05
0	1693	84.069634267061	0.05
0	1695	84.169634267061	0.05
0	1697	84.269634267061	0.05
0	1699	84.369634267061	0.05
0	1701	84.469634267061	0.05
0	1702	84.499731568	0.05
0	1703	84.569634267061	0.05
0	1705	84.669634267061	0.05
0	1707	84.769634267061	0.05
0	1709	84.869634267061	0.05
0	1711	84.969634267061	0.05
0	1712	85.022868805	0.05
0	1713	85.069634267061	0.05
0	1715	85.169634267061	0.05
0	1717	85.269634267061	0.05
0	1719	85.369634267061	0.05
0	1721	85.469634267061	0.05
0	1723	85.569634267061	0.05
0	1724	85.594523272	0.05
0	1725	85.669634267061	0.05
0	1727	85.769634267061	0.05
0	1729	85.869634267061	0.05
0	1731	85.969634267061	0.05
0	1733	86.069634267061	0.05
0	1733	86.073613564	0.05
0	1735	86.169634267061	0.05
0	1737	86.269634267061	0.05
0	1739	86.369634267061	0.05
0	1741	86.469634267061	0.05
0	1742	86.537380933	0.05
0	1743	86.569634267061	0.05
0	1745	86.669634267061	0.05
0	1747	86.769634267061	0.05
0	1749	86.869634267061	0.05
0	1751	86.969634267061	0.05
0	1752	87.037887754	0.05
0	1753	87.069634267061	0.05
0	1755	87.169634267061	0.05
0	1757	87.269634267061	0.05
0	1759	87.369634267061	0.05
0	1761	87.469634267061	0.05
0	1763	87.569634267061	0.05
0	1764	87.58698952	0.05
0	1765	87.669634267061	0.05
0	1767	87.769634267061	0.05
0	1769	87.869634267061	0.05
0	1771	87.969634267061	0.05
0	1773	88.069634267061	0.05
0	1775	88.169634267061	0.05
0	1776	88.223367145	0.05
0	1777	88.269634267061	0.05
0	1779	88.369634267061	0.05
0	1781	88.469634267061	0.05
0	1783	88.569634267061	0.05
0	1785	88.669634267061	0.05
0	1787	88.769634267061	0.05
0	1788	88.78984603	0.05
0	1789	88.869634267061	0.05
0	1791	88.969634267061	0.05
0	1793	89.069634267061	0.05
0	1795	89.169634267061	0.05
0	1797	89.269634267061	0.05
0	1798	89.331236584	0.05
0	1799	89.369634267061	0.05
0	1801	89.469634267061	0.05
0	1803	89.569634267061	0.05
0	1805	89.669634267061	0.05
0	1807	89.769634267061	0.05
0	1809	89.869634267061	0.05
0	1810	89.924291986	0.05
0	1811	89.969634267061	0.05
0	1813	90.069634267061	0.05
0	1815	90.169634267061	0.05
0	1817	90.269634267061	0.05
0	1819	90.369634267061	0.05
0	1821	90.469634267061	0.05
0	1823	90.569634267061	0.05
0	1824	90.593081029	0.05
0	1825	90.669634267061	0.05
0	1827	90.769634267061	0.05
0	1829	90.869634267061	0.05
0	1831	90.969634267061	0.05
0	1833	91.069634267061	0.05
0	1833	91.076339638	0.0495
0	1833	91.076339638	0.0495
0	1835	91.169634267061	0.049873178516244
0	1837	91.269634267061	0.05
0	1839	91.369634267061	0.05
0	1841	91.469634267061	0.05
0	1843	91.569634267061	0.05
0	1845	91.669634267061	0.05
0	1845	91.683959848	0.05
0	1847	91.769634267061	0.05
0	1849	91.869634267061	0.05
0	1851	91.969634267061	0.05
0	1853	92.069634267061	0.05
0	1855	92.169634267061	0.05
0	1856	92.233230589	0.05
0	1857	92.269634267061	0.05
0	1859	92.369634267061	0.05
0	1861	92.469634267061	0.05
0	1863	92.569634267061	0.05
0	1865	92.669634267061	0.05
0	1866	92.68508527	0.05
0	1867	92.769634267061	0.05
0	1869	92.869634267061	0.05
0	1871	92.969634267061	0.05
0	1873	93.069634267061	0.05
0	1875	93.169634267061	0.05
0	1876	93.230950417	0.05
0	1877	93.269634267061	0.05
0	1879	93.369634267061	0.05
0	1881	93.469634267061	0.05
0	1883	93.569634267061	0.05
0	1885	93.669634267061	0.05
0	1887	93.769634267061	0.05
0	1889	93.869634267061	0.05
0	1890	93.899068537	0.05
0	1891	93.969634267061	0.05
0	1893	94.069634267061	0.05
0	1895	94.169634267061	0.05
0	1897	94.269634267061	0.05
0	1899	94.369634267061	0.05
0	1901	94.469634267061	0.05
0	1903	94.569634267061	0.05
0	1905	94.669634267061	0.05
0	1905	94.679295586	0.05
0	1907	94.769634267061	0.05
0	1909	94.869634267061	0.05
0	1911	94.969634267061	0.05
0	1913	95.069634267061	0.05
0	1915	95.169634267061	0.05
0	1917	95.269634267061	0.05
0	1919	95.369634267061	0.05
0	1920	95.391936715	0.05
0	1921	95.469634267061	0.05
0	1923	95.569634267061	0.05
0	1925	95.669634267061	0.05
0	1927	95.769634267061	0.05
0	1929	95.869634267061	0.05
0	1931	95.969634267061	0.05
0	1933	96.069634267061	0.05
0	1935	96.169634267061	0.05
0	1936	96.221498944	0.05
0	1937	96.269634267061	0.05
0	1939	96.369634267061	0.05
0	1941	96.469634267061	0.05
0	1943	96.569634267061	0.05
0	1945	96.669634267061	0.05
0	1947	96.769634267061	0.05
0	1949	96.869634267061	0.05
0	1951	96.969634267061	0.05
0	1953	97.069634267061	0.05
0	1955	97.169634267061	0.05
0	1955	97.183281799	0.05
0	1957	97.269634267061	0.05
0	1959	97.369634267061	0.05
0	1961	97.469634267061	0.05
0	1963	97.569634267061	0.05
0	1965	97.669634267061	0.05
0	1967	97.769634267061	0.05
0	1969	97.869634267061	0.05
0	1971	97.969634267061	0.05
0	1973	98.069634267061	0.05
0	1974	98.139536896	0.05
0	1975	98.169634267061	0.05
0	1977	98.269634267061	0.05
0	1979	98.369634267061	0.05
0	1981	98.469634267061	0.05
0	1983	98.569634267061	0.05
0	1985	98.669634267061	0.05
0	1987	98.769634267061	0.05
0	1989	98.869634267061	0.05
0	1991	98.969634267061	0.05
0	1992	99.017252839	0.05
0	1993	99.069634267061	0.05
0	1995	99.169634267061	0.05
0	1997	99.269634267061	0.05
0	1999	99.369634267061	0.05
0	2001	99.469634267061	0.05
0	2003	99.569634267061	0.05
0	2006	99.669634267061	0.05
0	2009	99.769634267061	0.05
0	2012	99.869634267061	0.05
0	2013	99.886888144	0.0495
0	2013	99.886888144	0.0495
0	2015	99.969634267061	0.049830984492244
0	2017	100.069634267061	0.05
0	2020	100.169634267061	0.05
0	2023	100.269634267061	0.05
0	2026	100.369634267061	0.05
0	2027	100.40817316	0.05
0	2029	100.469634267061	0.05
0	2031	100.569634267061	0.05
0	2034	100.669634267061	0.05
0	2037	100.769634267061	0.05
0	2040	100.869634267061	0.05
0	2043	100.969634267061	0.05
0	2044	101.014639801	0.05
0	2045	101.069634267061	0.05
0	2048	101.169634267061	0.05
0	2051	101.269634267061	0.05
0	2054	101.369634267061	0.05
0	2057	101.469634267061	0.05
0	2059	101.569634267061	0.05
0	2061	101.586477514	0.05
0	2062	101.669634267061	0.05
0	2065	101.769634267061	0.05
0	2068	101.869634267061	0.05
0	2071	101.969634267061	0.05
0	2073	102.069634267061	0.05
0	2075	102.113894143	0.05
0	2076	102.169634267061	0.05
0	2080	102.269634267061	0.05
0	2082	102.369634267061	0.05
0	2084	102.469634267061	0.05
0	2086	102.569634267061	0.05
0	2087	102.598187707	0.05
0	2088	102.669634267061	0.05
0	2090	102.769634267061	0.05
0	2092	102.869634267061	0.05
0	2094	102.969634267061	0.05
0	2096	103.069634267061	0.05
0	2098	103.169634267061	0.05
0	2098	103.173011368	0.05
0	2100	103.269634267061	0.05
0	2102	103.369634267061	0.0495
0	2102	103.369634267061	0.0495
0	2104	103.469634267061	0.0499
0	2106	103.569634267061	0.05
0	2108	103.669634267061	0.05
0	2110	103.769634267061	0.05
0	2111	103.848493831	0.05
0	2112	103.869634267061	0.05
0	2114	103.969634267061	0.05
0	2116	104.069634267061	0.05
0	2118	104.169634267061	0.05
0	2120	104.269634267061	0.05
0	2122	104.369634267061	0.05
0	2123	104.460761608	0.05
0	2124	104.469634267061	0.05
0	2126	104.569634267061	0.05
0	2128	104.669634267061	0.05
0	2130	104.769634267061	0.05
0	2132	104.869634267061	0.0495
0	2132	104.869634267061	0.0495
0	2134	104.969634267061	0.0499
0	2135	105.031335511	0.05
0	2136	105.069634267061	0.05
0	2138	105.169634267061	0.05
0	2140	105.269634267061	0.05
0	2142	105.369634267061	0.05
0	2144	105.469634267061	0.05
0	2146	105.569634267061	0.05
0	2147	105.648154186	0.05
0	2148	105.669634267061	0.05
0	2150	105.769634267061	0.05
0	2152	105.869634267061	0.05
0	2154	105.969634267061	0.05
0	2156	106.069634267061	0.05
0	2158	106.169634267061	0.05
0	2160	106.269634267061	0.05
0	2160	106.273128106	0.05
0	2162	106.369634267061	0.05
0	2164	106.469634267061	0.05
0	2166	106.569634267061	0.05
0	2168	106.669634267061	0.05
0	2169	106.736742754	0.05
0	2170	106.769634267061	0.05
0	2172	106.869634267061	0.05
0	2174	106.969634267061	0.05
0	2176	107.069634267061	0.05
0	2178	107.169634267061	0.05
0	2180	107.269634267061	0.05
0	2180	107.281447573	0.05
0	2182	107.369634267061	0.05
0	2184	107.469634267061	0.05
0	2186	107.569634267061	0.05
0	2188	107.669634267061	0.05
0	2190	107.769634267061	0.0495
0	2190	107.769634267061	0.0495
0	2191	107.843791171	0.049796627615756
0	2192	107.869634267061	0.0499
0	2194	107.969634267061	0.05
0	2196	108.069634267061	0.05
0	2198	108.169634267061	0.05
0	2200	108.269634267061	0.05
0	2202	108.369634267061	0.05
0	2203	108.416815834	0.05
0	2204	108.469634267061	0.05
0	2206	108.569634267061	0.05
0	2208	108.669634267061	0.05
0	2210	108.769634267061	0.05
0	2212	108.869634267061	0.05
0	2214	108.969634267061	0.05
0	2215	108.985343482	0.05
0	2216	109.069634267061	0.05
0	2218	109.169634267061	0.0495
0	2218	109.169634267061	0.0495
0	2220	109.269634267061	0.0499
0	2222	109.369634267061	0.05
0	2224	109.469634267061	0.05
0	2225	109.547589835	0.05
0	2226	109.569634267061	0.05
0	2228	109.669634267061	0.05
0	2230	109.769634267061	0.05
0	2232	109.869634267061	0.05
0	2234	109.969634267061	0.05
0	2236	110.069634267061	0.05
0	2237	110.103480577	0.05
0	2238	110.169634267061	0.05
0	2240	110.269634267061	0.05
0	2242	110.369634267061	0.05
0	2244	110.469634267061	0.05
0	2246	110.569634267061	0.05
0	2248	110.669634267061	0.0495
0	2248	110.669634267061	0.0495
0	2250	110.769634267061	0.0499
0	2250	110.779671103	0.049940147343756
0	2252	110.869634267061	0.05
0	2254	110.969634267061	0.05
0	2256	111.069634267061	0.05
0	2258	111.169634267061	0.05
0	2260	111.269634267061	0.05
0	2262	111.369634267061	0.05
0	2264	111.469634267061	0.05
0	2265	111.560196151	0.05
0	2266	111.569634267061	0.05
0	2268	111.669634267061	0.05
0	2270	111.769634267061	0.05
0	2272	111.869634267061	0.05
0	2274	111.969634267061	0.05
0	2276	112.069634267061	0.05
0	2278	112.169634267061	0.0495
0	2278	112.169634267061	0.0495
0	2280	112.269634267061	0.0499
0	2282	112.369634267061	0.05
0	2283	112.397973808	0.05
0	2284	112.469634267061	0.05
0	2286	112.569634267061	0.05
0	2288	112.669634267061	0.05
0	2290	112.769634267061	0.05
0	2292	112.869634267061	0.05
0	2294	112.969634267061	0.05
0	2296	113.069634267061	0.05
0	2298	113.169634267061	0.05
0	2300	113.269634267061	0.05
0	2301	113.31325063	0.05
0	2302	113.369634267061	0.05
0	2304	113.469634267061	0.05
0	2306	113.569634267061	0.05
0	2308	113.669634267061	0.0495
0	2308	113.669634267061	0.0495
0	2310	113.769634267061	0.0499
0	2312	113.869634267061	0.05
0	2314	113.969634267061	0.05
0	2316	114.069634267061	0.05
0	2317	114.133383727	0.05
0	2318	114.169634267061	0.05
0	2320	114.269634267061	0.05
0	2322	114.369634267061	0.05
0	2324	114.469634267061	0.05
0	2326	114.569634267061	0.05
0	2328	114.669634267061	0.05
0	2330	114.769634267061	0.05
0	2332	114.869634267061	0.05
0	2334	114.969634267061	0.05
0	2336	115.069634267061	0.05
0	2338	115.169634267061	0.05
0	2339	115.251737515	0.0495
0	2339	115.251737515	0.0495
0	2340	115.269634267061	0.049571587008244
0	2342	115.369634267061	0.049971587008244
0	2344	115.469634267061	0.05
0	2346	115.569634267061	0.05
0	2348	115.669634267061	0.05
0	2350	115.769634267061	0.05
0	2352	115.869634267061	0.05
0	2354	115.969634267061	0.05
0	2356	116.069634267061	0.05
0	2356	116.083082137	0.05
0	2358	116.169634267061	0.05
0	2360	116.269634267061	0.05
0	2362	116.369634267061	0.05
0	2364	116.469634267061	0.05
0	2366	116.569634267061	0.05
0	2368	116.669634267061	0.05
0	2369	116.706693745	0.0495
0	2369	116.706693745	0.0495
0	2370	116.769634267061	0.049751762088244
0	2372	116.869634267061	0.05
0	2374	116.969634267061	0.05
0	2376	117.069634267061	0.05
0	2378	117.169634267061	0.05
0	2379	117.24213781	0.05
0	2380	117.269634267061	0.05
0	2382	117.369634267061	0.05
0	2384	117.469634267061	0.05
0	2386	117.569634267061	0.05
0	2388	117.669634267061	0.05
0	2389	117.705118627	0.05
0	2390	117.769634267061	0.05
0	2392	117.869634267061	0.05
0	2394	117.969634267061	0.05
0	2396	118.069634267061	0.05
0	2398	118.169634267061	0.0495
0	2398	118.169634267061	0.0495
0	2399	118.230707326	0.049744292235756
0	2400	118.269634267061	0.0499
0	2402	118.369634267061	0.05
0	2404	118.469634267061	0.05
0	2406	118.569634267061	0.05
0	2408	118.669634267061	0.05
0	2409	118.76604811	0.05
0	2410	118.769634267061	0.05
0	2412	118.869634267061	0.05
0	2414	118.969634267061	0.05
0	2416	119.069634267061	0.05
0	2418	119.169634267061	0.05
0	2419	119.267711761	0.05
0	2420	119.269634267061	0.05
0	2422	119.369634267061	0.05
0	2424	119.469634267061	0.05
0	2426	119.569634267061	0.0495
0	2426	119.569634267061	0.0495
0	2428	119.669634267061	0.0499
0	2429	119.731483441	0.05
0	2430	119.769634267061	0.05
0	2432	119.869634267061	0.05
0	2434	119.969634267061	0.05
0	2436	120.069634267061	0.05
0	2438	120.169634267061	0.05
0	2440	120.269634267061	0.05
0	2440	120.271067896	0.05
0	2442	120.369634267061	0.05
0	2444	120.469634267061	0.05
0	2446	120.569634267061	0.05
0	2448	120.669634267061	0.05
0	2450	120.769634267061	0.05
0	2451	120.860125159	0.05
0	2452	120.869634267061	0.05
0	2454	120.969634267061	0.0495
0	2454	120.969634267061	0.0495
0	2456	121.069634267061	0.0499
0	2458	121.169634267061	0.05
0	2460	121.269634267061	0.05
0	2462	121.369634267061	0.05
0	2463	121.416422239	0.05
0	2464	121.469634267061	0.05
0	2466	121.569634267061	0.05
0	2468	121.669634267061	0.05
0	2470	121.769634267061	0.05
0	2472	121.869634267061	0.05
0	2473	121.943084827	0.05
0	2474	121.969634267061	0.05
0	2476	122.069634267061	0.05
0	2478	122.169634267061	0.05
0	2480	122.269634267061	0.05
0	2482	122.369634267061	0.05
0	2483	122.424711802	0.0495
0	2483	122.424711802	0.0495
0	2484	122.469634267061	0.049679689860244
0	2486	122.569634267061	0.05
0	2488	122.669634267061	0.05
0	2490	122.769634267061	0.05
0	2492	122.869634267061	0.05
0	2493	122.952885304	0.05
0	2494	122.969634267061	0.05
0	2496	123.069634267061	0.05
0	2498	123.169634267061	0.05
0	2500	123.269634267061	0.05
0	2502	123.369634267061	0.05
0	2503	123.458750953	0.05
0	2504	123.469634267061	0.05
0	2506	123.569634267061	0.05
0	2508	123.669634267061	0.05
0	2510	123.769634267061	0.05
0	2512	123.869634267061	0.0495
0	2512	123.869634267061	0.0495
0	2513	123.946845376	0.049808844435756
0	2514	123.969634267061	0.0499
0	2516	124.069634267061	0.05
0	2518	124.169634267061	0.05
0	2520	124.269634267061	0.05
0	2522	124.369634267061	0.05
0	2524	124.469634267061	0.05
0	2526	124.569634267061	0.05
0	2527	124.596945298	0.05
0	2528	124.669634267061	0.05
0	2530	124.769634267061	0.05
0	2532	124.869634267061	0.05
0	2534	124.969634267061	0.05
0	2536	125.069634267061	0.05
0	2537	125.156078326	0.05
0	2538	125.169634267061	0.05
0	2540	125.269634267061	0.0495
0	2540	125.269634267061	0.0495
0	2542	125.369634267061	0.0499
0	2544	125.469634267061	0.05
0	2546	125.569634267061	0.05
0	2547	125.666380561	0.05
0	2548	125.669634267061	0.05
0	2550	125.769634267061	0.05
0	2552	125.869634267061	0.05
0	2554	125.969634267061	0.05
0	2556	126.069634267061	0.05
0	2558	126.169634267061	0.05
0	2558	126.180628717	0.05
0	2560	126.269634267061	0.05
0	2562	126.369634267061	0.05
0	2564	126.469634267061	0.05
0	2566	126.569634267061	0.05
0	2567	126.66560425	0.05
0	2568	126.669634267061	0.0495
0	2568	126.669634267061	0.0495
0	2570	126.769634267061	0.0499
0	2572	126.869634267061	0.05
0	2574	126.969634267061	0.05
0	2576	127.069634267061	0.05
0	2578	127.169634267061	0.05
0	2581	127.269634267061	0.05
0	2583	127.36289002	0.05
0	2584	127.369634267061	0.05
0	2587	127.469634267061	0.05
0	2590	127.569634267061	0.05
0	2593	127.669634267061	0.05
0	2595	127.769634267061	0.05
0	2598	127.869634267061	0.05
0	2600	127.921664326	0.05
0	2601	127.969634267061	0.05
0	2604	128.069634267061	0.05
0	2607	128.169634267061	0.05
0	2609	128.269634267061	0.05
0	2611	128.369634267061	0.05
0	2612	128.402608972	0.05
0	2613	128.469634267061	0.05
0	2615	128.569634267061	0.05
0	2617	128.669634267061	0.05
0	2619	128.769634267061	0.05
0	2621	128.869634267061	0.05
0	2622	128.907356911	0.05
0	2623	128.969634267061	0.05
0	2625	129.069634267061	0.05
0	2627	129.169634267061	0.05
0	2629	129.269634267061	0.05
0	2630	129.357331057	0.05
0	2631	129.369634267061	0.05
0	2633	129.469634267061	0.05
0	2635	129.569634267061	0.05
0	2637	129.669634267061	0.05
0	2639	129.769634267061	0.05
0	2640	129.866437108	0.05
0	2641	129.869634267061	0.05
0	2643	129.969634267061	0.05
0	2645	130.069634267061	0.05
0	2647	130.169634267061	0.05
0	2649	130.269634267061	0.05
0	2651	130.369634267061	0.05
0	2652	130.415048743	0.05
0	2653	130.469634267061	0.05
0	2655	130.569634267061	0.05
0	2657	130.669634267061	0.05
0	2659	130.769634267061	0.05
0	2661	130.869634267061	0.05
0	2662	130.911544414	0.05
0	2663	130.969634267061	0.05
0	2665	131.069634267061	0.05
0	2667	131.169634267061	0.05
0	2669	131.269634267061	0.05
0	2671	131.369634267061	0.05
0	2673	131.469634267061	0.05
0	2674	131.49993073	0.05
0	2675	131.569634267061	0.05
0	2677	131.669634267061	0.05
0	2679	131.769634267061	0.05
0	2681	131.869634267061	0.05
0	2682	131.969464318	0.05
0	2683	131.969634267061	0.05
0	2685	132.069634267061	0.05
0	2687	132.169634267061	0.05
0	2689	132.269634267061	0.05
0	2691	132.369634267061	0.05
0	2693	132.469634267061	0.05
0	2694	132.493765171	0.05
0	2695	132.569634267061	0.05
0	2697	132.669634267061	0.05
0	2699	132.769634267061	0.05
0	2701	132.869634267061	0.05
0	2702	132.947639701	0.05
0	2703	132.969634267061	0.05
0	2705	133.069634267061	0.05
0	2707	133.169634267061	0.05
0	2709	133.269634267061	0.05
0	2711	133.369634267061	0.05
0	2713	133.469634267061	0.05
0	2713	133.479041194	0.0495
0	2713	133.479041194	0.0495
0	2715	133.569634267061	0.049862372292244
0	2717	133.669634267061	0.05
0	2719	133.769634267061	0.05
0	2721	133.869634267061	0.05
0	2723	133.969634267061	0.05
0	2724	134.010814693	0.05
0	2725	134.069634267061	0.05
0	2727	134.169634267061	0.05
0	2729	134.269634267061	0.05
0	2731	134.369634267061	0.05
0	2733	134.469634267061	0.05
0	2734	134.525879902	0.05
0	2735	134.569634267061	0.05
0	2737	134.669634267061	0.05
0	2739	134.769634267061	0.05
0	2741	134.869634267061	0.05
0	2743	134.969634267061	0.05
0	2744	135.067793521	0.05
0	2745	135.069634267061	0.05
0	2747	135.169634267061	0.05
0	2749	135.269634267061	0.05
0	2751	135.369634267061	0.05
0	2753	135.469634267061	0.05
0	2755	135.569634267061	0.05
0	2756	135.582730831	0.05
0	2757	135.669634267061	0.05
0	2759	135.769634267061	0.05
0	2761	135.869634267061	0.05
0	2763	135.969634267061	0.05
0	2765	136.069634267061	0.05
0	2765	136.078480732	0.05
0	2767	136.169634267061	0.05
0	2769	136.269634267061	0.05
0	2771	136.369634267061	0.05
0	2773	136.469634267061	0.05
0	2775	136.569634267061	0.05
0	2776	136.615136182	0.05
0	2777	136.669634267061	0.05
0	2779	136.769634267061	0.05
0	2781	136.869634267061	0.05
0	2783	136.969634267061	0.05
0	2784	137.067930946	0.05
0	2785	137.069634267061	0.05
0	2787	137.169634267061	0.05
0	2789	137.228226874741	0.05
0	2790	137.269634267061	0.05
0	2792	137.369634267061	0.05
0	2794	137.469634267061	0.05
0	2796	137.569634267061	0.05
0	2797	137.642523904	0.05
0	2798	137.669634267061	0.0495
0	2798	137.669634267061	0.0495
0	2800	137.769634267061	0.0495
0	2802	137.869634267061	0.0495
0	2804	137.969634267061	0.0495
0	2806	138.069634267061	0.0495
0	2807	138.168468085	0.0495
0	2808	138.169634267061	0.0495
0	2810	138.269634267061	0.0495
0	2812	138.369634267061	0.0495
0	2814	138.469634267061	0.0495
0	2816	138.569634267061	0.0495
0	2817	138.618512851	0.0495
0	2818	138.669634267061	0.0495
0	2820	138.769634267061	0.0495
0	2822	138.869634267061	0.0495
0	2824	138.896700895137	0.0495
0	2826	138.996700895137	0.0495
0	2827	139.09307101	0.049005
0	2827	139.09307101	0.049005
0	2828	139.096700895137	0.049005
0	2830	139.196700895137	0.049005
0	2832	139.296700895137	0.049005
0	2834	139.396700895137	0.049005
0	2836	139.496700895137	0.049005
0	2836	139.556401126	0.049005
0	2838	139.596700895137	0.049005
0	2840	139.696700895137	0.049005
0	2842	139.796700895137	0.049005
0	2844	139.896700895137	0.049005
0	2846	139.996700895137	0.049005
0	2846	140.063729311	0.049005
0	2848	140.096700895137	0.049005
0	2850	140.196700895137	0.049005
0	2852	140.296700895137	0.049005
0	2854	140.396700895137	0.049005
0	2856	140.496700895137	0.04851495
0	2856	140.496700895137	0.04851495
0	2858	140.596700895137	0.04851495
0	2858	140.599768288	0.04851495
0	2860	140.696700895137	0.04851495
0	2862	140.796700895137	0.04851495
0	2864	140.896700895137	0.04851495
0	2866	140.996700895137	0.04851495
0	2868	141.096700895137	0.04851495
0	2868	141.137672473	0.04851495
0	2870	141.196700895137	0.04851495
0	2872	141.296700895137	0.04851495
0	2874	141.396700895137	0.04851495
0	2876	141.496700895137	0.04851495
0	2878	141.596700895137	0.04851495
0	2878	141.613813423	0.04851495
0	2880	141.696700895137	0.04851495
0	2882	141.796700895137	0.04851495
0	2884	141.896700895137	0.0480298005
0	2884	141.896700895137	0.0480298005
0	2886	141.996700895137	0.0480298005
0	2886	142.074493042	0.0480298005
0	2888	142.096700895137	0.0480298005
0	2890	142.196700895137	0.0480298005
0	2892	142.296700895137	0.0480298005
0	2892	142.343721754	0.0480298005
0	2894	142.396700895137	0.0480298005
0	2896	142.496700895137	0.0480298005
0	2898	142.596700895137	0.0480298005
0	2900	142.696700895137	0.0480298005
0	2902	142.796700895137	0.0480298005
0	2902	142.83178165	0.0480298005
0	2904	142.896700895137	0.0480298005
0	2906	142.996700895137	0.0480298005
0	2908	143.096700895137	0.0480298005
0	2910	143.196700895137	0.0480298005
0	2912	143.296700895137	0.047549502495
0	2912	143.296700895137	0.047549502495
0	2914	143.396700895137	0.047549502495
0	2914	143.421436276	0.047549502495
0	2916	143.496700895137	0.047549502495
0	2918	143.596700895137	0.047549502495
0	2920	143.696700895137	0.047549502495
0	2922	143.796700895137	0.047549502495
0	2924	143.896700895137	0.047549502495
0	2926	143.996700895137	0.047549502495
0	2927	144.089515942	0.047549502495
0	2928	144.096700895137	0.047549502495
0	2930	144.196700895137	0.047549502495
0	2932	144.296700895137	0.047549502495
0	2934	144.396700895137	0.047549502495
0	2936	144.496700895137	0.047549502495
0	2938	144.596700895137	0.047549502495
0	2940	144.696700895137	0.047549502495
0	2941	144.784896187	0.04707400747005
0	2941	144.784896187	0.04707400747005
0	2942	144.796700895137	0.04707400747005
0	2944	144.896700895137	0.04707400747005
0	2946	144.996700895137	0.04707400747005
0	2948	145.096700895137	0.04707400747005
0	2950	145.196700895137	0.04707400747005
0	2952	145.296700895137	0.04707400747005
0	2954	145.396700895137	0.04707400747005
0	2954	145.449771721	0.04707400747005
0	2956	145.496700895137	0.04707400747005
0	2958	145.596700895137	0.04707400747005
0	2960	145.696700895137	0.04707400747005
0	2962	145.796700895137	0.04707400747005
0	2964	145.896700895137	0.04707400747005
0	2966	145.996700895137	0.04707400747005
0	2966	146.078888278	0.04707400747005
0	2968	146.096700895137	0.04707400747005
0	2970	146.196700895137	0.04660326739535
0	2970	146.196700895137	0.04660326739535
0	2972	146.296700895137	0.04660326739535
0	2974	146.396700895137	0.04660326739535
0	2976	146.496700895137	0.04660326739535
0	2978	146.596700895137	0.04660326739535
0	2980	146.696700895137	0.04660326739535
0	2980	146.71268806	0.04660326739535
0	2982	146.796700895137	0.04660326739535
0	2984	146.896700895137	0.04660326739535
0	2986	146.996700895137	0.04660326739535
0	2988	147.096700895137	0.04660326739535
0	2990	147.196700895137	0.04660326739535
0	2992	147.296700895137	0.04660326739535
0	2994	147.396700895137	0.04660326739535
0	2994	147.47019046	0.04660326739535
0	2996	147.496700895137	0.04660326739535
0	2998	147.596700895137	0.04660326739535
0	3000	147.696700895137	0.046137234721396
0	3000	147.696700895137	0.046137234721396
0	3002	147.796700895137	0.046137234721396
0	3004	147.896700895137	0.046137234721396
0	3006	147.996700895137	0.046137234721396
0	3006	148.077791845	0.046137234721396
0	3008	148.096700895137	0.046137234721396
0	3010	148.196700895137	0.046137234721396
0	3012	148.296700895137	0.046137234721396
0	3014	148.396700895137	0.046137234721396
0	3016	148.496700895137	0.046137234721396
0	3018	148.596700895137	0.046137234721396
0	3020	148.696700895137	0.046137234721396
0	3021	148.786598668	0.046137234721396
0	3022	148.796700895137	0.046137234721396
0	3024	148.896700895137	0.046137234721396
0	3026	148.996700895137	0.046137234721396
0	3028	149.096700895137	0.046137234721396
0	3030	149.196700895137	0.045675862374182
0	3030	149.196700895137	0.045675862374182
0	3032	149.296700895137	0.045675862374182
0	3034	149.396700895137	0.045675862374182
0	3036	149.496700895137	0.045675862374182
0	3038	149.596700895137	0.045675862374182
0	3038	149.659634971	0.045675862374182
0	3040	149.696700895137	0.045675862374182
0	3042	149.796700895137	0.045675862374182
0	3044	149.896700895137	0.045675862374182
0	3046	149.996700895137	0.045675862374182
0	3048	150.096700895137	0.045675862374182
0	3050	150.196700895137	0.045675862374182
0	3050	150.260523337	0.045675862374182
0	3052	150.296700895137	0.045675862374182
0	3054	150.396700895137	0.045675862374182
0	3056	150.496700895137	0.045675862374182
0	3058	150.596700895137	0.045675862374182
0	3060	150.696700895137	0.04521910375044
0	3060	150.696700895137	0.04521910375044
0	3062	150.796700895137	0.04521910375044
0	3064	150.896700895137	0.04521910375044
0	3064	150.933451657	0.04521910375044
0	3066	150.996700895137	0.04521910375044
0	3068	151.096700895137	0.04521910375044
0	3070	151.196700895137	0.04521910375044
0	3072	151.296700895137	0.04521910375044
0	3074	151.396700895137	0.04521910375044
0	3076	151.496700895137	0.04521910375044
0	3076	151.500765919	0.04521910375044
0	3078	151.596700895137	0.04521910375044
0	3080	151.696700895137	0.04521910375044
0	3082	151.796700895137	0.04521910375044
0	3084	151.896700895137	0.04521910375044
0	3086	151.996700895137	0.04521910375044
0	3088	152.096700895137	0.04521910375044
0	3090	152.196700895137	0.044766912712936
0	3090	152.196700895137	0.044766912712936
0	3092	152.296700895137	0.044766912712936
0	3092	152.317562986	0.044766912712936
0	3094	152.396700895137	0.044766912712936
0	3096	152.496700895137	0.044766912712936
0	3098	152.596700895137	0.044766912712936
0	3100	152.696700895137	0.044766912712936
0	3102	152.796700895137	0.044766912712936
0	3104	152.896700895137	0.044766912712936
0	3104	152.90643895	0.044766912712936
0	3106	152.996700895137	0.044766912712936
0	3108	153.096700895137	0.044766912712936
0	3110	153.196700895137	0.044766912712936
0	3112	153.296700895137	0.044766912712936
0	3114	153.396700895137	0.044766912712936
0	3114	153.475881514	0.044766912712936
0	3116	153.496700895137	0.044766912712936
0	3118	153.596700895137	0.044319243585806
0	3118	153.596700895137	0.044319243585806
0	3120	153.696700895137	0.044319243585806
0	3122	153.796700895137	0.044319243585806
0	3124	153.896700895137	0.044319243585806
0	3126	153.996700895137	0.044319243585806
0	3127	154.088126425	0.044319243585806
0	3128	154.096700895137	0.044319243585806
0	3130	154.196700895137	0.044319243585806
0	3132	154.296700895137	0.044319243585806
0	3134	154.396700895137	0.044319243585806
0	3136	154.496700895137	0.044319243585806
0	3138	154.596700895137	0.044319243585806
0	3140	154.696700895137	0.044319243585806
0	3140	154.770700423	0.044319243585806
0	3142	154.796700895137	0.044319243585806
0	3144	154.896700895137	0.044319243585806
0	3146	154.996700895137	0.044319243585806
0	3148	155.096700895137	0.043876051149948
0	3148	155.096700895137	0.043876051149948
0	3150	155.196700895137	0.043876051149948
0	3152	155.296700895137	0.043876051149948
0	3154	155.396700895137	0.043876051149948
0	3154	155.439198133	0.043876051149948
0	3156	155.496700895137	0.043876051149948
0	3158	155.596700895137	0.043876051149948
0	3160	155.696700895137	0.043876051149948
0	3162	155.796700895137	0.043876051149948
0	3164	155.896700895137	0.043876051149948
0	3166	155.996700895137	0.043876051149948
0	3168	156.096700895137	0.043876051149948
0	3169	156.182876815	0.043876051149948
0	3170	156.196700895137	0.043876051149948
0	3172	156.296700895137	0.043876051149948
0	3174	156.396700895137	0.043876051149948
0	3176	156.496700895137	0.043876051149948
0	3178	156.596700895137	0.043437290638449
0	3178	156.596700895137	0.043437290638449
0	3180	156.696700895137	0.043437290638449
0	3182	156.796700895137	0.043437290638449
0	3182	156.860423002	0.043437290638449
0	3184	156.896700895137	0.043437290638449
0	3186	156.996700895137	0.043437290638449
0	3188	157.096700895137	0.043437290638449
0	3190	157.196700895137	0.043437290638449
0	3192	157.296700895137	0.043437290638449
0	3192	157.337154859	0.043437290638449
0	3194	157.396700895137	0.043437290638449
0	3196	157.496700895137	0.043437290638449
0	3198	157.596700895137	0.043437290638449
0	3200	157.696700895137	0.043437290638449
0	3202	157.796700895137	0.043437290638449
0	3204	157.896700895137	0.043437290638449
0	3204	157.92187639	0.043437290638449
0	3206	157.996700895137	0.043002917732064
0	3206	157.996700895137	0.043002917732064
0	3208	158.096700895137	0.043002917732064
0	3210	158.196700895137	0.043002917732064
0	3212	158.296700895137	0.043002917732064
0	3214	158.396700895137	0.043002917732064
0	3216	158.496700895137	0.043002917732064
0	3216	158.563119916	0.043002917732064
0	3218	158.596700895137	0.043002917732064
0	3220	158.696700895137	0.043002917732064
0	3222	158.796700895137	0.043002917732064
0	3224	158.896700895137	0.043002917732064
0	3226	158.996700895137	0.043002917732064
0	3226	159.077292253	0.043002917732064
0	3228	159.096700895137	0.043002917732064
0	3230	159.196700895137	0.043002917732064
0	3232	159.296700895137	0.043002917732064
0	3234	159.396700895137	0.043002917732064
0	3236	159.496700895137	0.042572888554744
0	3236	159.496700895137	0.042572888554744
0	3238	159.596700895137	0.042572888554744
0	3238	159.646067581	0.042572888554744
0	3240	159.696700895137	0.042572888554744
0	3242	159.796700895137	0.042572888554744
0	3244	159.896700895137	0.042572888554744
0	3246	159.996700895137	0.042572888554744
0	3248	160.096700895137	0.042572888554744
0	3250	160.196700895137	0.042572888554744
0	3250	160.240503157	0.042572888554744
0	3252	160.296700895137	0.042572888554744
0	3254	160.396700895137	0.042572888554744
0	3256	160.496700895137	0.042572888554744
0	3258	160.596700895137	0.042572888554744
0	3260	160.696700895137	0.042572888554744
0	3260	160.758377512	0.042572888554744
0	3262	160.796700895137	0.042572888554744
0	3264	160.896700895137	0.042147159669196
0	3264	160.896700895137	0.042147159669196
0	3266	160.996700895137	0.042147159669196
0	3268	161.096700895137	0.042147159669196
0	3270	161.196700895137	0.042147159669196
0	3272	161.296700895137	0.042147159669196
0	3273	161.386795675	0.042147159669196
0	3274	161.396700895137	0.042147159669196
0	3276	161.496700895137	0.042147159669196
0	3278	161.596700895137	0.042147159669196
0	3280	161.696700895137	0.042147159669196
0	3282	161.796700895137	0.042147159669196
0	3284	161.896700895137	0.042147159669196
0	3286	161.996700895137	0.042147159669196
0	3288	162.096700895137	0.042147159669196
0	3288	162.167407192	0.042147159669196
0	3290	162.196700895137	0.042147159669196
0	3292	162.296700895137	0.042147159669196
0	3294	162.396700895137	0.041725688072504
0	3294	162.396700895137	0.041725688072504
0	3296	162.496700895137	0.041725688072504
0	3298	162.596700895137	0.041725688072504
0	3298	162.620401804	0.041725688072504
0	3300	162.696700895137	0.041725688072504
0	3302	162.796700895137	0.041725688072504
0	3304	162.896700895137	0.041725688072504
0	3306	162.996700895137	0.041725688072504
0	3306	163.072795345	0.041725688072504
0	3308	163.096700895137	0.041725688072504
0	3310	163.196700895137	0.041725688072504
0	3312	163.296700895137	0.041725688072504
0	3314	163.396700895137	0.041725688072504
0	3316	163.496700895137	0.041725688072504
0	3318	163.596700895137	0.041725688072504
0	3318	163.67174824	0.041725688072504
0	3320	163.696700895137	0.041725688072504
0	3322	163.796700895137	0.041308431191779
0	3322	163.796700895137	0.041308431191779
0	3324	163.896700895137	0.041308431191779
0	3326	163.996700895137	0.041308431191779
0	3328	164.096700895137	0.041308431191779
0	3329	164.194799476	0.041308431191779
0	3330	164.196700895137	0.041308431191779
0	3332	164.296700895137	0.041308431191779
0	3333	164.381121186911	0.041308431191779
0	3335	164.481121186911	0.041308431191779
0	3337	164.581121186911	0.041308431191779
0	3338	164.658154771	0.041308431191779
0	3339	164.681121186911	0.041308431191779
0	3341	164.781121186911	0.041308431191779
0	3343	164.881121186911	0.041308431191779
0	3345	164.981121186911	0.041308431191779
0	3347	165.073140845054	0.041308431191779
0	3348	165.081121186911	0.041340352559207
0	3350	165.121033047109	0.0415
0	3351	165.181121186911	0.041740352559208
0	3353	165.246033047109	0.042
0	3353	165.279978988	0.042135783763564
0	3354	165.281121186911	0.042140352559208
0	3356	165.371033047109	0.0425
0	3357	165.381121186911	0.042540352559208
0	3359	165.481121186911	0.042940352559208
0	3361	165.496033047109	0.043
0	3362	165.581121186911	0.043340352559208
0	3364	165.621033047109	0.0435
0	3365	165.681121186911	0.043740352559208
0	3367	165.746033047109	0.044
0	3368	165.781121186911	0.044140352559208
0	3369	165.822994099	0.044307844207564
0	3370	165.871033047109	0.0445
0	3371	165.881121186911	0.044540352559208
0	3373	165.981121186911	0.044940352559208
0	3375	165.996033047109	0.045
0	3376	166.081121186911	0.045340352559208
0	3378	166.121033047109	0.0455
0	3379	166.181121186911	0.045740352559208
0	3381	166.246033047109	0.046
0	3382	166.281121186911	0.045678949033616
0	3382	166.281121186911	0.045678949033616
0	3383	166.298161594	0.045747110661972
0	3384	166.371033047109	0.0465
0	3385	166.381121186911	0.046540352559208
0	3387	166.481121186911	0.046940352559208
0	3389	166.496033047109	0.047
0	3390	166.581121186911	0.047340352559208
0	3392	166.621033047109	0.0475
0	3393	166.681121186911	0.047740352559208
0	3395	166.746033047109	0.048
0	3396	166.781121186911	0.048140352559208
0	3397	166.844521219	0.048393952687564
0	3398	166.871033047109	0.0485
0	3399	166.881121186911	0.048540352559208
0	3401	166.981121186911	0.048940352559208
0	3403	166.996033047109	0.049
0	3404	167.081121186911	0.049340352559208
0	3406	167.121033047109	0.0495
0	3407	167.181121186911	0.049740352559208
0	3409	167.246033047109	0.05
0	3410	167.281121186911	0.05
0	3411	167.372910907	0.0495
0	3411	167.372910907	0.0495
0	3412	167.381121186911	0.049532841119644
0	3414	167.481121186911	0.049932841119644
0	3416	167.581121186911	0.05
0	3418	167.681121186911	0.05
0	3420	167.781121186911	0.05
0	3421	167.831862505	0.05
0	3422	167.881121186911	0.05
0	3424	167.981121186911	0.05
0	3426	168.081121186911	0.05
0	3428	168.181121186911	0.05
0	3430	168.281121186911	0.05
0	3432	168.381121186911	0.05
0	3433	168.410582806	0.05
0	3434	168.481121186911	0.05
0	3436	168.581121186911	0.05
0	3438	168.681121186911	0.05
0	3440	168.781121186911	0.0495
0	3440	168.781121186911	0.0495
0	3442	168.881121186911	0.0499
0	3443	168.919144264	0.05
0	3444	168.981121186911	0.05
0	3446	169.081121186911	0.05
0	3448	169.181121186911	0.05
0	3450	169.281121186911	0.05
0	3451	169.366968196	0.05
0	3452	169.381121186911	0.05
0	3454	169.481121186911	0.05
0	3456	169.581121186911	0.05
0	3458	169.681121186911	0.05
0	3460	169.781121186911	0.05
0	3462	169.881121186911	0.05
0	3463	169.942249936	0.05
0	3464	169.981121186911	0.05
0	3466	170.081121186911	0.05
0	3468	170.181121186911	0.0495
0	3468	170.181121186911	0.0495
0	3470	170.281121186911	0.0499
0	3472	170.381121186911	0.05
0	3474	170.481121186911	0.05
0	3475	170.493273034	0.05
0	3476	170.581121186911	0.05
0	3478	170.681121186911	0.05
0	3480	170.781121186911	0.05
0	3482	170.881121186911	0.05
0	3484	170.981121186911	0.05
0	3486	171.081121186911	0.05
0	3487	171.08744551	0.05
0	3488	171.181121186911	0.05
0	3490	171.281121186911	0.05
0	3492	171.381121186911	0.05
0	3494	171.481121186911	0.05
0	3496	171.581121186911	0.05
0	3498	171.681121186911	0.0495
0	3498	171.681121186911	0.0495
0	3499	171.714352246	0.049632924236356
0	3500	171.781121186911	0.0499
0	3502	171.881121186911	0.05
0	3504	171.981121186911	0.05
0	3506	172.081121186911	0.05
0	3508	172.181121186911	0.05
0	3509	172.211603833	0.05
0	3510	172.281121186911	0.05
0	3512	172.381121186911	0.05
0	3514	172.481121186911	0.05
0	3516	172.581121186911	0.05
0	3518	172.681121186911	0.05
0	3520	172.781121186911	0.05
0	3521	172.821144826	0.05
0	3522	172.881121186911	0.05
0	3524	172.981121186911	0.05
0	3526	173.081121186911	0.0495
0	3526	173.081121186911	0.0495
0	3528	173.181121186911	0.0499
0	3530	173.233663128292	0.05
0	3532	173.333663128292	0.05
0	3534	173.433663128292	0.05
0	3534	173.471016058	0.05
0	3536	173.533663128292	0.05
0	3538	173.633663128292	0.05
0	3540	173.733663128292	0.05
0	3542	173.833663128292	0.05
0	3544	173.91762870849	0.05
0	3545	173.933663128292	0.05
0	3547	174.033663128292	0.05
0	3547	174.061792957	0.05
0	3549	174.133663128292	0.05
0	3551	174.233663128292	0.05
0	3553	174.333663128292	0.05
0	3555	174.433663128292	0.05
0	3557	174.533663128292	0.05
0	3559	174.633663128292	0.05
0	3559	174.637418848	0.05
0	3561	174.733663128292	0.05
0	3563	174.833663128292	0.05
0	3565	174.933663128292	0.05
0	3567	175.033663128292	0.05
0	3569	175.133663128292	0.05
0	3570	175.206476662	0.05
0	3571	175.233663128292	0.05
0	3573	175.333663128292	0.05
0	3575	175.433663128292	0.05
0	3577	175.533663128292	0.05
0	3579	175.633663128292	0.05
0	3581	175.733663128292	0.05
0	3581	175.767017899	0.05
0	3583	175.833663128292	0.05
0	3585	175.933663128292	0.05
0	3587	176.033663128292	0.05
0	3589	176.133663128292	0.05
0	3591	176.233663128292	0.05
0	3592	176.294472748	0.05
0	3593	176.333663128292	0.05
0	3595	176.433663128292	0.05
0	3597	176.533663128292	0.05
0	3599	176.633663128292	0.05
0	3601	176.733663128292	0.05
0	3603	176.833663128292	0.05
0	3603	176.878358776	0.05
0	3605	176.933663128292	0.05
0	3607	177.033663128292	0.05
0	3609	177.133663128292	0.05
0	3611	177.233663128292	0.05
0	3613	177.333663128292	0.05
0	3615	177.433663128292	0.05
0	3615	177.480036679	0.05
0	3617	177.533663128292	0.05
0	3619	177.633663128292	0.05
0	3621	177.733663128292	0.05
0	3623	177.833663128292	0.05
0	3625	177.933663128292	0.05
0	3626	178.005502858	0.05
0	3627	178.033663128292	0.05
0	3629	178.133663128292	0.05
0	3631	178.233663128292	0.05
0	3633	178.333663128292	0.05
0	3635	178.433663128292	0.05
0	3635	178.476310243	0.05
0	3637	178.533663128292	0.05
0	3639	178.633663128292	0.05
0	3641	178.733663128292	0.05
0	3643	178.833663128292	0.05
0	3645	178.933663128292	0.05
0	3647	179.033663128292	0.05
0	3648	179.095147438	0.05
0	3649	179.133663128292	0.05
0	3651	179.233663128292	0.05
0	3653	179.333663128292	0.05
0	3655	179.433663128292	0.05
0	3657	179.533663128292	0.05
0	3659	179.633663128292	0.05
0	3659	179.635642315	0.05
0	3661	179.733663128292	0.05
0	3663	179.833663128292	0.05
0	3665	179.933663128292	0.05
0	3667	180.033663128292	0.05
0	3669	180.133663128292	0.05
0	3671	180.233663128292	0.05
0	3673	180.333663128292	0.05
0	3673	180.366976552	0.05
0	3675	180.433663128292	0.05
0	3677	180.533663128292	0.05
0	3678	180.538393864765	0.05
0	3680	180.638393864765	0.05
0	3682	180.738393864765	0.05
0	3684	180.838393864765	0.05
0	3685	180.905993125	0.05
0	3686	180.938393864765	0.05
0	3688	181.038393864765	0.05
0	3690	181.138393864765	0.05
0	3692	181.238393864765	0.05
0	3694	181.338393864765	0.05
0	3696	181.438393864765	0.05
0	3698	181.538393864765	0.05
0	3698	181.571173174	0.05
0	3700	181.638393864765	0.0495
0	3700	181.638393864765	0.0495
0	3702	181.738393864765	0.0495
0	3704	181.838393864765	0.0495
0	3706	181.938393864765	0.0495
0	3706	181.978663987	0.0495
0	3708	182.038393864765	0.0495
0	3710	182.138393864765	0.0495
0	3712	182.238393864765	0.0495
0	3714	182.338393864765	0.0495
0	3716	182.438393864765	0.0495
0	3716	182.452450375	0.0495
0	3718	182.538393864765	0.0495
0	3720	182.638393864765	0.0495
0	3722	182.738393864765	0.0495
0	3722	182.740437238	0.0495
0	3724	182.838393864765	0.0495
0	3726	182.938393864765	0.0495
0	3728	183.038393864765	0.049005
0	3728	183.038393864765	0.049005
0	3730	183.138393864765	0.049005
0	3732	183.238393864765	0.049005
0	3733	183.334024051	0.049005
0	3734	183.338393864765	0.049005
0	3736	183.438393864765	0.049005
0	3738	183.538393864765	0.049005
0	3740	183.638393864765	0.049005
0	3742	183.738393864765	0.049005
0	3744	183.838393864765	0.049005
0	3744	183.860866027	0.049005
0	3746	183.938393864765	0.049005
0	3748	184.038393864765	0.049005
0	3750	184.138393864765	0.049005
0	3752	184.238393864765	0.049005
0	3754	184.338393864765	0.049005
0	3755	184.407241615	0.049005
0	3756	184.438393864765	0.04851495
0	3756	184.438393864765	0.04851495
0	3758	184.538393864765	0.04851495
0	3760	184.638393864765	0.04851495
0	3762	184.738393864765	0.04851495
0	3764	184.838393864765	0.04851495
0	3766	184.938393864765	0.04851495
0	3766	184.970489713	0.04851495
0	3768	185.038393864765	0.04851495
0	3770	185.138393864765	0.04851495
0	3772	185.238393864765	0.04851495
0	3774	185.338393864765	0.04851495
0	3776	185.438393864765	0.04851495
0	3777	185.516136601	0.04851495
0	3778	185.538393864765	0.04851495
0	3780	185.638393864765	0.04851495
0	3782	185.738393864765	0.04851495
0	3784	185.838393864765	0.04851495
0	3786	185.938393864765	0.0480298005
0	3786	185.938393864765	0.0480298005
0	3788	186.038393864765	0.0480298005
0	3789	186.110430247	0.0480298005
0	3790	186.138393864765	0.0480298005
0	3792	186.238393864765	0.0480298005
0	3794	186.338393864765	0.0480298005
0	3796	186.438393864765	0.0480298005
0	3798	186.538393864765	0.0480298005
0	3800	186.638393864765	0.0480298005
0	3802	186.738393864765	0.0480298005
0	3803	186.785141428	0.0480298005
0	3804	186.838393864765	0.0480298005
0	3806	186.938393864765	0.0480298005
0	3808	187.038393864765	0.0480298005
0	3810	187.138393864765	0.0480298005
0	3812	187.238393864765	0.0480298005
0	3812	187.274284237	0.0480298005
0	3814	187.338393864765	0.047549502495
0	3814	187.338393864765	0.047549502495
0	3816	187.438393864765	0.047549502495
0	3818	187.538393864765	0.047549502495
0	3820	187.638393864765	0.047549502495
0	3822	187.738393864765	0.047549502495
0	3824	187.838393864765	0.047549502495
0	3824	187.854357232	0.047549502495
0	3826	187.938393864765	0.047549502495
0	3828	188.038393864765	0.047549502495
0	3830	188.138393864765	0.047549502495
0	3832	188.238393864765	0.047549502495
0	3834	188.338393864765	0.047549502495
0	3835	188.423952811	0.047549502495
0	3836	188.438393864765	0.047549502495
0	3838	188.538393864765	0.047549502495
0	3840	188.638393864765	0.047549502495
0	3842	188.738393864765	0.047549502495
0	3844	188.838393864765	0.04707400747005
0	3844	188.838393864765	0.04707400747005
0	3847	188.938393864765	0.04707400747005
0	3847	188.987327545	0.04707400747005
0	3849	189.038393864765	0.04707400747005
0	3851	189.138393864765	0.04707400747005
0	3853	189.238393864765	0.04707400747005
0	3855	189.338393864765	0.04707400747005
0	3857	189.438393864765	0.04707400747005
0	3858	189.463520834032	0.04707400747005
0	3858	189.473316817	0.04707400747005
0	3860	189.563520834032	0.04707400747005
0	3862	189.663520834032	0.04707400747005
0	3864	189.763520834032	0.04707400747005
0	3866	189.863520834032	0.04707400747005
0	3868	189.963520834032	0.04707400747005
0	3870	190.063520834032	0.04707400747005
0	3871	190.113559477	0.04707400747005
0	3872	190.163520834032	0.04660326739535
0	3872	190.163520834032	0.04660326739535
0	3874	190.263520834032	0.04660326739535
0	3876	190.363520834032	0.04660326739535
0	3878	190.463520834032	0.04660326739535
0	3880	190.563520834032	0.04660326739535
0	3881	190.649163172	0.04660326739535
0	3882	190.663520834032	0.04660326739535
0	3884	190.763520834032	0.04660326739535
0	3886	190.863520834032	0.04660326739535
0	3888	190.963520834032	0.04660326739535
0	3890	191.063520834032	0.04660326739535
0	3891	191.131703155	0.04660326739535
0	3892	191.163520834032	0.04660326739535
0	3894	191.263520834032	0.04660326739535
0	3896	191.363520834032	0.04660326739535
0	3898	191.463520834032	0.04660326739535
0	3900	191.563520834032	0.04660326739535
0	3902	191.663520834032	0.046137234721396
0	3902	191.663520834032	0.046137234721396
0	3902	191.675565877	0.046137234721396
0	3904	191.763520834032	0.046137234721396
0	3906	191.863520834032	0.046137234721396
0	3908	191.963520834032	0.046137234721396
0	3910	192.063520834032	0.046137234721396
0	3912	192.163520834032	0.046137234721396
0	3913	192.236023897	0.046137234721396
0	3914	192.263520834032	0.046137234721396
0	3916	192.363520834032	0.046137234721396
0	3918	192.463520834032	0.046137234721396
0	3920	192.563520834032	0.046137234721396
0	3922	192.663520834032	0.046137234721396
0	3924	192.763520834032	0.046137234721396
0	3924	192.774109975	0.046137234721396
0	3926	192.863520834032	0.046137234721396
0	3928	192.963520834032	0.046137234721396
0	3930	193.063520834032	0.045675862374182
0	3930	193.063520834032	0.045675862374182
0	3932	193.163520834032	0.045675862374182
0	3934	193.263520834032	0.045675862374182
0	3934	193.278861289	0.045675862374182
0	3936	193.363520834032	0.045675862374182
0	3938	193.463520834032	0.045675862374182
0	3940	193.563520834032	0.045675862374182
0	3942	193.663520834032	0.045675862374182
0	3943	193.744828399	0.045675862374182
0	3944	193.763520834032	0.045675862374182
0	3946	193.863520834032	0.045675862374182
0	3948	193.963520834032	0.045675862374182
0	3950	194.063520834032	0.045675862374182
0	3952	194.163520834032	0.045675862374182
0	3954	194.263520834032	0.045675862374182
0	3954	194.278960339	0.045675862374182
0	3956	194.363520834032	0.045675862374182
0	3958	194.463520834032	0.04521910375044
0	3958	194.463520834032	0.04521910375044
0	3960	194.563520834032	0.04521910375044
0	3962	194.663520834032	0.04521910375044
0	3964	194.763520834032	0.04521910375044
0	3965	194.853012529	0.04521910375044
0	3966	194.863520834032	0.04521910375044
0	3968	194.963520834032	0.04521910375044
0	3970	195.063520834032	0.04521910375044
0	3972	195.163520834032	0.04521910375044
0	3974	195.263520834032	0.04521910375044
0	3976	195.363520834032	0.04521910375044
0	3978	195.463520834032	0.04521910375044
0	3980	195.563520834032	0.04521910375044
0	3981	195.623680849	0.04521910375044
0	3982	195.663520834032	0.04521910375044
0	3984	195.763520834032	0.04521910375044
0	3986	195.863520834032	0.04521910375044
0	3988	195.931356812102	0.044766912712936
0	3988	195.931356812102	0.044766912712936
0	3989	195.963520834032	0.044895568800656
0	3990	195.989628633868	0.045
0	3992	196.063520834032	0.045295568800656
0	3994	196.114628633868	0.0455
0	3995	196.163520834032	0.045695568800656
0	3995	196.18573915	0.045784442064528
0	3997	196.239628633868	0.046
0	3998	196.263520834032	0.046095568800656
0	4000	196.363520834032	0.046495568800656
0	4001	196.364628633868	0.0465
0	4002	196.372829110783	0.04653280190766
0	4004	196.472829110783	0.04693280190766
0	4005	196.489628633868	0.047
0	4007	196.572829110783	0.04733280190766
0	4009	196.614628633868	0.0475
0	4010	196.672829110783	0.04773280190766
0	4012	196.739628633868	0.048
0	4013	196.772829110783	0.04813280190766
0	4015	196.864628633868	0.0485
0	4016	196.872829110783	0.04853280190766
0	4017	196.953806509	0.048856711500528
0	4018	196.972829110783	0.048443473888583
0	4018	196.972829110783	0.048443473888583
0	4019	196.989628633868	0.049
0	4021	197.072829110783	0.04933280190766
0	4023	197.114628633868	0.0495
0	4024	197.172829110783	0.04973280190766
0	4026	197.239628633868	0.05
0	4027	197.272829110783	0.05
0	4029	197.372829110783	0.05
0	4031	197.472829110783	0.05
0	4033	197.572829110783	0.05
0	4034	197.629433434	0.05
0	4035	197.672829110783	0.05
0	4037	197.772829110783	0.05
0	4039	197.872829110783	0.05
0	4041	197.972829110783	0.05
0	4043	198.072829110783	0.05
0	4045	198.172829110783	0.05
0	4047	198.272829110783	0.05
0	4048	198.356186548	0.05
0	4049	198.372829110783	0.05
0	4051	198.472829110783	0.05
0	4053	198.572829110783	0.05
0	4055	198.672829110783	0.05
0	4057	198.772829110783	0.05
0	4059	198.872829110783	0.05
0	4061	198.972829110783	0.05
0	4062	199.003721119	0.05
0	4063	199.072829110783	0.05
0	4065	199.172829110783	0.05
0	4067	199.272829110783	0.05
0	4069	199.372829110783	0.05
0	4071	199.472829110783	0.05
0	4072	199.569065242	0.05
0	4073	199.572829110783	0.05
0	4075	199.672829110783	0.05
0	4077	199.772829110783	0.05
0	4078	199.856382514	0.05
0	4079	199.872829110783	0.05
0	4081	199.972829110783	0.05
0	4083	200.072829110783	0.05
0	4085	200.172829110783	0.05
0	4086	200.247884758	0.05
0	4087	200.272829110783	0.05
0	4089	200.353538316096	0.05
0	4092	200.453538316096	0.05
0	4094	200.553538316096	0.05
0	4096	200.653538316096	0.05
0	4098	200.753538316096	0.05
0	4099	200.81340148	0.05
0	4100	200.853538316096	0.05
0	4102	200.953538316096	0.05
0	4104	201.053538316096	0.05
0	4106	201.153538316096	0.05
0	4108	201.253538316096	0.05
0	4110	201.353538316096	0.05
0	4112	201.453538316096	0.05
0	4114	201.553538316096	0.05
0	4115	201.601109809	0.05
0	4116	201.653538316096	0.05
0	4118	201.753538316096	0.05
0	4120	201.853538316096	0.05
0	4122	201.953538316096	0.05
0	4124	202.053538316096	0.05
0	4126	202.153538316096	0.05
0	4128	202.253538316096	0.05
0	4129	202.297636942	0.05
0	4130	202.353538316096	0.05
0	4132	202.453538316096	0.05
0	4134	202.553538316096	0.05
0	4136	202.653538316096	0.05
0	4138	202.753538316096	0.05
0	4140	202.853538316096	0.05
0	4141	202.896127441	0.05
0	4142	202.953538316096	0.05
0	4144	203.053538316096	0.05
0	4146	203.153538316096	0.05
0	4148	203.253538316096	0.05
0	4150	203.353538316096	0.05
0	4150	203.376028312	0.05
0	4152	203.453538316096	0.05
0	4154	203.553538316096	0.05
0	4156	203.653538316096	0.05
0	4158	203.753538316096	0.05
0	4160	203.853538316096	0.05
0	4160	203.871567169	0.05
0	4162	203.953538316096	0.05
0	4164	204.053538316096	0.05
0	4166	204.153538316096	0.05
0	4168	204.253538316096	0.05
0	4169	204.349856224	0.05
0	4170	204.353538316096	0.05
0	4172	204.453538316096	0.05
0	4174	204.553538316096	0.05
0	4176	204.653538316096	0.05
0	4178	204.753538316096	0.05
0	4180	204.853538316096	0.05
0	4180	204.867144616	0.05
0	4182	204.953538316096	0.05
0	4184	205.053538316096	0.05
0	4186	205.153538316096	0.05
0	4188	205.253538316096	0.05
0	4190	205.353538316096	0.05
0	4191	205.40670361	0.05
0	4192	205.453538316096	0.05
0	4194	205.553538316096	0.05
0	4196	205.653538316096	0.05
0	4198	205.730505392773	0.05
0	4199	205.753538316096	0.05
0	4201	205.853538316096	0.05
0	4202	205.923456751	0.05
0	4203	205.953538316096	0.05
0	4205	206.053538316096	0.05
0	4207	206.153538316096	0.05
0	4209	206.253538316096	0.05
0	4211	206.353538316096	0.05
0	4212	206.446257718	0.05
0	4213	206.453538316096	0.05
0	4215	206.553538316096	0.05
0	4217	206.653538316096	0.05
0	4219	206.753538316096	0.05
0	4221	206.853538316096	0.05
0	4222	206.946135625	0.0495
0	4222	206.946135625	0.0495
0	4223	206.953538316096	0.0495
0	4225	207.053538316096	0.0495
0	4227	207.153538316096	0.0495
0	4229	207.253538316096	0.0495
0	4231	207.353538316096	0.0495
0	4232	207.443612308	0.0495
0	4233	207.453538316096	0.0495
0	4235	207.553538316096	0.0495
0	4237	207.653538316096	0.0495
0	4239	207.753538316096	0.0495
0	4241	207.853538316096	0.0495
0	4243	207.953538316096	0.0495
0	4244	208.042857718	0.0495
0	4245	208.053538316096	0.0495
0	4247	208.153538316096	0.0495
0	4249	208.253538316096	0.0495
0	4250	208.343265298	0.049005
0	4250	208.343265298	0.049005
0	4251	208.353538316096	0.049005
0	4253	208.453538316096	0.049005
0	4255	208.553538316096	0.049005
0	4257	208.653538316096	0.049005
0	4259	208.753538316096	0.049005
0	4260	208.797456115	0.049005
0	4261	208.853538316096	0.049005
0	4263	208.953538316096	0.049005
0	4265	209.053538316096	0.049005
0	4267	209.153538316096	0.049005
0	4269	209.253538316096	0.049005
0	4270	209.340844837	0.049005
0	4271	209.353538316096	0.049005
0	4273	209.453538316096	0.049005
0	4275	209.553538316096	0.049005
0	4277	209.653538316096	0.049005
0	4279	209.753538316096	0.04851495
0	4279	209.753538316096	0.04851495
0	4281	209.853538316096	0.04851495
0	4282	209.944821094	0.04851495
0	4283	209.953538316096	0.04851495
0	4285	210.053538316096	0.04851495
0	4287	210.153538316096	0.04851495
0	4289	210.253538316096	0.04851495
0	4291	210.353538316096	0.04851495
0	4293	210.453538316096	0.04851495
0	4293	210.478394524	0.04851495
0	4295	210.553538316096	0.04851495
0	4297	210.653538316096	0.04851495
0	4299	210.753538316096	0.04851495
0	4301	210.853538316096	0.04851495
0	4302	210.917439343	0.04851495
0	4303	210.953538316096	0.04851495
0	4305	211.053538316096	0.04851495
0	4307	211.153538316096	0.0480298005
0	4307	211.153538316096	0.0480298005
0	4309	211.253538316096	0.0480298005
0	4311	211.353538316096	0.0480298005
0	4313	211.453538316096	0.0480298005
0	4315	211.553538316096	0.0480298005
0	4315	211.576794328	0.0480298005
0	4317	211.653538316096	0.0480298005
0	4319	211.753538316096	0.0480298005
0	4321	211.853538316096	0.0480298005
0	4323	211.953538316096	0.0480298005
0	4325	212.053538316096	0.0480298005
0	4325	212.068156279	0.0480298005
0	4327	212.153538316096	0.0480298005
0	4329	212.253538316096	0.0480298005
0	4331	212.353538316096	0.0480298005
0	4333	212.453538316096	0.0480298005
0	4334	212.549532748	0.0480298005
0	4335	212.553538316096	0.047549502495
0	4335	212.553538316096	0.047549502495
0	4337	212.653538316096	0.047549502495
0	4339	212.753538316096	0.047549502495
0	4340	212.840127505	0.047549502495
0	4341	212.853538316096	0.047549502495
0	4343	212.953538316096	0.047549502495
0	4345	213.053538316096	0.047549502495
0	4347	213.153538316096	0.047549502495
0	4349	213.253538316096	0.047549502495
0	4351	213.353538316096	0.047549502495
0	4353	213.453538316096	0.047549502495
0	4354	213.499690303	0.047549502495
0	4355	213.553538316096	0.047549502495
0	4357	213.639970725273	0.047549502495
0	4358	213.653538316096	0.047603772858292
0	4360	213.752595101523	0.048
0	4361	213.753538316096	0.048003772858292
0	4363	213.853538316096	0.048403772858292
0	4364	213.877595101523	0.0485
0	4366	213.953538316096	0.048803772858292
0	4368	214.002595101523	0.049
0	4369	214.053538316096	0.049203772858292
0	4369	214.074418183	0.049287292325908
0	4371	214.127595101523	0.0495
0	4372	214.153538316096	0.049603772858292
0	4374	214.252595101523	0.05
0	4375	214.253538316096	0.05
0	4377	214.353538316096	0.05
0	4379	214.453538316096	0.05
0	4381	214.553538316096	0.05
0	4383	214.653538316096	0.05
[...]
2	15613	764.593741638795	0.045675862374182
2	15614	764.657428705	0.045675862374182
2	15615	764.693741638795	0.045675862374182
2	15617	764.793741638795	0.045675862374182
2	15619	764.893741638795	0.045675862374182
2	15621	764.993741638795	0.045675862374182
2	15623	765.093741638795	0.04521910375044
2	15623	765.093741638795	0.04521910375044
2	15625	765.193741638795	0.04521910375044
2	15627	765.293741638795	0.04521910375044
2	15629	765.393741638795	0.04521910375044
2	15629	765.407274157	0.04521910375044
2	15631	765.493741638795	0.04521910375044
2	15633	765.593741638795	0.04521910375044
2	15635	765.693741638795	0.04521910375044
2	15637	765.793741638795	0.04521910375044
2	15639	765.893741638795	0.04521910375044
2	15640	765.953841607	0.04521910375044
2	15641	765.993741638795	0.04521910375044
2	15643	766.093741638795	0.04521910375044
2	15645	766.193741638795	0.04521910375044
2	15647	766.293741638795	0.04521910375044
2	15649	766.393741638795	0.04521910375044
2	15651	766.493741638795	0.04521910375044
2	15651	766.496400295	0.044766912712936
2	15651	766.496400295	0.044766912712936
2	15653	766.593741638795	0.044766912712936
2	15655	766.693741638795	0.044766912712936
2	15657	766.793741638795	0.044766912712936
2	15659	766.893741638795	0.044766912712936
2	15660	766.943650318	0.044766912712936
2	15661	766.993741638795	0.044766912712936
2	15663	767.093741638795	0.044766912712936
2	15665	767.193741638795	0.044766912712936
2	15667	767.293741638795	0.044766912712936
2	15669	767.393741638795	0.044766912712936
2	15671	767.493741638795	0.044766912712936
2	15673	767.593741638795	0.044766912712936
2	15674	767.643537766	0.044766912712936
2	15675	767.693741638795	0.044766912712936
2	15677	767.793741638795	0.044766912712936
2	15679	767.893741638795	0.044766912712936
2	15681	767.993741638795	0.044319243585806
2	15681	767.993741638795	0.044319243585806
2	15683	768.093741638795	0.044319243585806
2	15685	768.193741638795	0.044319243585806
2	15686	768.246656392	0.044319243585806
2	15687	768.293741638795	0.044319243585806
2	15689	768.393741638795	0.044319243585806
2	15691	768.493741638795	0.044319243585806
2	15693	768.593741638795	0.044319243585806
2	15695	768.693741638795	0.044319243585806
2	15696	768.777914254	0.044319243585806
2	15697	768.793741638795	0.044319243585806
2	15699	768.893741638795	0.044319243585806
2	15701	768.993741638795	0.044319243585806
2	15703	769.093741638795	0.044319243585806
2	15705	769.193741638795	0.044319243585806
2	15706	769.272175276	0.044319243585806
2	15707	769.293741638795	0.044319243585806
2	15709	769.393741638795	0.043876051149948
2	15709	769.393741638795	0.043876051149948
2	15711	769.493741638795	0.043876051149948
2	15713	769.523264626245	0.043876051149948
2	15714	769.554251838758	0.044
2	15715	769.593741638795	0.044157959200148
2	15717	769.679251838758	0.0445
2	15718	769.693741638795	0.044557959200148
2	15720	769.793741638795	0.044957959200148
2	15721	769.804251838758	0.045
2	15722	769.825055101	0.045083213048968
2	15723	769.893741638795	0.045357959200148
2	15725	769.929251838758	0.0455
2	15726	769.993741638795	0.045757959200148
2	15728	770.054251838758	0.046
2	15729	770.093741638795	0.046157959200148
2	15731	770.179251838758	0.0465
2	15732	770.193741638795	0.046557959200148
2	15734	770.293741638795	0.046957959200148
2	15735	770.304251838758	0.047
2	15736	770.383571419	0.047317278320968
2	15737	770.393741638795	0.047357959200148
2	15739	770.429251838758	0.047025
2	15739	770.429251838758	0.047025
2	15741	770.493741638795	0.047282959200148
2	15743	770.548001838758	0.0475
2	15744	770.593741638795	0.047682959200148
2	15746	770.673001838758	0.048
2	15747	770.693741638795	0.048082959200148
2	15749	770.793741638795	0.048482959200148
2	15750	770.798001838758	0.0485
2	15751	770.859381913	0.048745520296968
2	15752	770.893741638795	0.048882959200148
2	15754	770.923001838758	0.049
2	15755	770.993741638795	0.049282959200148
2	15757	771.048001838758	0.0495
2	15758	771.093741638795	0.049682959200148
2	15760	771.173001838758	0.05
2	15761	771.193741638795	0.05
2	15763	771.293741638795	0.05
2	15765	771.393741638795	0.05
2	15767	771.493741638795	0.05
2	15767	771.494787139	0.05
2	15769	771.593741638795	0.0495
2	15769	771.593741638795	0.0495
2	15771	771.693741638795	0.0499
2	15773	771.793741638795	0.05
2	15775	771.893741638795	0.05
2	15777	771.993741638795	0.05
2	15779	772.093741638795	0.05
2	15780	772.181204025999	0.05
2	15781	772.193741638795	0.05
2	15783	772.293741638795	0.05
2	15785	772.393741638795	0.05
2	15787	772.493741638795	0.05
2	15789	772.593741638795	0.05
2	15791	772.693741638795	0.05
2	15793	772.793741638795	0.05
2	15795	772.893741638795	0.05
2	15797	772.993741638795	0.05
2	15799	773.093741638795	0.05
2	15801	773.193741638795	0.0495
2	15801	773.193741638795	0.0495
2	15801	773.196992067998	0.049513001716812
2	15803	773.293741638795	0.0499
2	15805	773.393741638795	0.05
2	15807	773.493741638795	0.05
2	15809	773.593741638795	0.05
2	15811	773.693741638795	0.05
2	15813	773.793741638795	0.05
2	15814	773.819504964997	0.05
2	15815	773.893741638795	0.05
2	15817	773.993741638795	0.05
2	15819	774.093741638795	0.05
2	15821	774.193741638795	0.05
2	15823	774.293741638795	0.05
2	15825	774.393741638795	0.05
2	15826	774.447194940997	0.05
2	15827	774.493741638795	0.05
2	15829	774.593741638795	0.0495
2	15829	774.593741638795	0.0495
2	15831	774.693741638795	0.0499
2	15833	774.793741638795	0.05
2	15835	774.893741638795	0.05
2	15837	774.993741638795	0.05
2	15839	775.093741638795	0.05
2	15840	775.128415569996	0.05
2	15841	775.193741638795	0.05
2	15843	775.293741638795	0.05
2	15845	775.393741638795	0.05
2	15847	775.493741638795	0.05
2	15849	775.593741638795	0.05
2	15850	775.633564620996	0.05
2	15851	775.693741638795	0.05
2	15853	775.793741638795	0.05
2	15855	775.893741638795	0.05
2	15857	775.993741638795	0.05
2	15859	776.093741638795	0.0495
2	15859	776.093741638795	0.0495
2	15860	776.147054457996	0.049713251276804
2	15861	776.193741638795	0.0499
2	15863	776.293741638795	0.05
2	15865	776.393741638795	0.05
2	15867	776.493741638795	0.05
2	15869	776.593741638795	0.05
2	15871	776.693741638795	0.05
2	15872	776.721326844995	0.05
2	15873	776.793741638795	0.05
2	15875	776.893741638795	0.05
2	15877	776.993741638795	0.05
2	15879	777.093741638795	0.05
2	15881	777.193741638795	0.05
2	15883	777.293741638795	0.05
2	15883	777.308462604995	0.05
2	15885	777.393741638795	0.05
2	15887	777.493741638795	0.0495
2	15887	777.493741638795	0.0495
2	15889	777.593741638795	0.0499
2	15891	777.693741638795	0.05
2	15893	777.793741638795	0.05
2	15895	777.893741638795	0.05
2	15896	777.967729632994	0.05
2	15897	777.993741638795	0.05
2	15899	778.093741638795	0.05
2	15901	778.193741638795	0.05
2	15903	778.293741638795	0.05
2	15905	778.393741638795	0.05
2	15907	778.493741638795	0.05
2	15908	778.580655381993	0.05
2	15909	778.593741638795	0.05
2	15911	778.693741638795	0.05
2	15913	778.793741638795	0.05
2	15915	778.893741638795	0.05
2	15917	778.993741638795	0.0495
2	15917	778.993741638795	0.0495
2	15919	779.093741638795	0.0499
2	15920	779.141786616993	0.05
2	15921	779.193741638795	0.05
2	15923	779.293741638795	0.05
2	15925	779.393741638795	0.05
2	15927	779.493741638795	0.05
2	15929	779.593741638795	0.05
2	15931	779.693741638795	0.05
2	15931	779.711787696993	0.05
2	15933	779.793741638795	0.05
2	15935	779.893741638795	0.05
2	15937	779.993741638795	0.05
2	15939	780.093741638795	0.05
2	15941	780.193741638795	0.05
2	15942	780.242723697992	0.05
2	15943	780.293741638795	0.05
2	15945	780.393741638795	0.0495
2	15945	780.393741638795	0.0495
2	15947	780.493741638795	0.0499
2	15949	780.593741638795	0.05
2	15951	780.693741638795	0.05
2	15952	780.740505522992	0.05
2	15953	780.793741638795	0.05
2	15955	780.893741638795	0.05
2	15957	780.993741638795	0.05
2	15959	781.093741638795	0.05
2	15961	781.193741638795	0.05
2	15963	781.293741638795	0.05
2	15963	781.311484362992	0.05
2	15965	781.393741638795	0.05
2	15967	781.493741638795	0.05
2	15969	781.593741638795	0.05
2	15971	781.693741638795	0.05
2	15972	781.782626922992	0.05
2	15973	781.793741638795	0.0495
2	15973	781.793741638795	0.0495
2	15975	781.893741638795	0.0499
2	15977	781.993741638795	0.05
2	15979	782.093741638795	0.05
2	15981	782.193741638795	0.05
2	15983	782.293741638795	0.05
2	15984	782.360800266991	0.05
2	15985	782.393741638795	0.05
2	15987	782.493741638795	0.05
2	15989	782.593741638795	0.05
2	15991	782.693741638795	0.05
2	15993	782.793741638795	0.05
2	15995	782.893741638795	0.05
2	15997	782.993741638795	0.05
2	15998	783.087764553991	0.05
2	15999	783.093741638795	0.05
2	16001	783.193741638795	0.05
2	16003	783.293741638795	0.0495
2	16003	783.293741638795	0.0495
2	16005	783.393741638795	0.0499
2	16007	783.493741638795	0.05
2	16009	783.593741638795	0.05
2	16010	783.646119021991	0.05
2	16011	783.693741638795	0.05
2	16013	783.793741638795	0.05
2	16015	783.893741638795	0.05
2	16017	783.993741638795	0.05
2	16018	784.083927390991	0.05
2	16019	784.093741638795	0.05
2	16021	784.193741638795	0.05
2	16023	784.293741638795	0.05
2	16025	784.393741638795	0.05
2	16027	784.493741638795	0.05
2	16029	784.593741638795	0.05
2	16030	784.671674238991	0.05
2	16031	784.693741638795	0.0495
2	16031	784.693741638795	0.0495
2	16033	784.793741638795	0.0499
2	16035	784.893741638795	0.05
2	16037	784.993741638795	0.05
2	16039	785.093741638795	0.05
2	16041	785.193741638795	0.05
2	16041	785.205273246991	0.05
2	16043	785.293741638795	0.05
2	16045	785.393741638795	0.05
2	16047	785.493741638795	0.05
2	16049	785.593741638795	0.05
2	16051	785.693741638795	0.05
2	16052	785.785240515991	0.05
2	16053	785.793741638795	0.05
2	16055	785.893741638795	0.05
2	16057	785.993741638795	0.05
2	16059	786.093741638795	0.05
2	16061	786.193741638795	0.0495
2	16061	786.193741638795	0.0495
2	16062	786.269715447991	0.049803895236784
2	16063	786.293741638795	0.0499
2	16065	786.393741638795	0.05
2	16067	786.493741638795	0.05
2	16068	786.545295909991	0.05
2	16069	786.593741638795	0.05
2	16071	786.693741638795	0.05
2	16073	786.793741638795	0.05
2	16076	786.893741638795	0.05
2	16078	786.993741638795	0.05
2	16080	787.093741638795	0.05
2	16080	787.102215744991	0.05
2	16082	787.193741638795	0.05
2	16084	787.293741638795	0.05
2	16086	787.393741638795	0.05
2	16088	787.493741638795	0.05
2	16088	787.514834442991	0.05
2	16090	787.593741638795	0.05
2	16092	787.693741638795	0.05
2	16094	787.793741638795	0.05
2	16096	787.893741638795	0.05
2	16098	787.993741638795	0.05
2	16100	788.093741638795	0.05
2	16101	788.132975463991	0.05
2	16102	788.193741638795	0.05
2	16104	788.293741638795	0.05
2	16106	788.393741638795	0.05
2	16108	788.493741638795	0.05
2	16110	788.593741638795	0.05
2	16112	788.693741638795	0.05
2	16113	788.757326322991	0.05
2	16114	788.793741638795	0.05
2	16116	788.893741638795	0.05
2	16118	788.993741638795	0.05
2	16120	789.093741638795	0.05
2	16122	789.193741638795	0.05
2	16124	789.293741638795	0.05
2	16126	789.393741638795	0.05
2	16128	789.493741638795	0.05
2	16128	789.50447254599	0.05
2	16130	789.593741638795	0.05
2	16132	789.693741638795	0.05
2	16134	789.793741638795	0.05
2	16136	789.893741638795	0.05
2	16138	789.993741638795	0.05
2	16140	790.093741638795	0.05
2	16142	790.193741638795	0.05
2	16144	790.293741638795	0.05
2	16145	790.391023344989	0.05
2	16146	790.393741638795	0.05
2	16148	790.493741638795	0.05
2	16150	790.593741638795	0.05
2	16152	790.693741638795	0.05
2	16154	790.793741638795	0.05
2	16156	790.893741638795	0.05
2	16158	790.993741638795	0.05
2	16160	791.093741638795	0.05
2	16162	791.193741638795	0.05
2	16164	791.293741638795	0.05
2	16166	791.393741638795	0.05
2	16168	791.493741638795	0.05
2	16169	791.542221909988	0.05
2	16170	791.593741638795	0.05
2	16172	791.693741638795	0.05
2	16174	791.793741638795	0.05
2	16176	791.893741638795	0.05
2	16178	791.993741638795	0.05
2	16180	792.093741638795	0.05
2	16182	792.193741638795	0.05
2	16184	792.293741638795	0.05
2	16186	792.393741638795	0.05
2	16188	792.493741638795	0.05
2	16190	792.593741638795	0.05
2	16192	792.693741638795	0.05
2	16194	792.793741638795	0.05
2	16196	792.893741638795	0.05
2	16196	792.915587841987	0.05
2	16198	792.993741638795	0.05
2	16200	793.093741638795	0.05
2	16202	793.193741638795	0.05
2	16204	793.293741638795	0.05
2	16206	793.393741638795	0.05
2	16208	793.493741638795	0.05
2	16210	793.593741638795	0.05
2	16212	793.693741638795	0.05
2	16213	793.761359769986	0.05
2	16214	793.793741638795	0.05
2	16216	793.893741638795	0.05
2	16218	793.993741638795	0.05
2	16220	794.093741638795	0.05
2	16222	794.193741638795	0.05
2	16224	794.293741638795	0.05
2	16226	794.393741638795	0.05
2	16226	794.395270950985	0.05
2	16228	794.493741638795	0.05
2	16230	794.593741638795	0.05
2	16232	794.693741638795	0.05
2	16235	794.793741638795	0.05
2	16236	794.889772044985	0.05
2	16237	794.893741638795	0.05
2	16239	794.993741638795	0.0495
2	16239	794.993741638795	0.0495
2	16241	795.093741638795	0.0499
2	16243	795.193741638795	0.05
2	16245	795.293741638795	0.05
2	16247	795.393741638795	0.05
2	16248	795.418778736985	0.05
2	16249	795.493741638795	0.05
2	16251	795.593741638795	0.05
2	16253	795.693741638795	0.05
2	16255	795.793741638795	0.05
2	16257	795.893741638795	0.05
2	16258	795.945712875985	0.05
2	16259	795.993741638795	0.05
2	16261	796.093741638795	0.05
2	16263	796.193741638795	0.05
2	16265	796.293741638795	0.05
2	16267	796.393741638795	0.05
2	16268	796.477071534985	0.05
2	16269	796.493741638795	0.05
2	16271	796.593741638795	0.05
2	16273	796.693741638795	0.05
2	16275	796.793741638795	0.05
2	16277	796.893741638795	0.05
2	16278	796.932943377985	0.05
2	16279	796.993741638795	0.05
2	16281	797.093741638795	0.05
2	16283	797.193741638795	0.05
2	16285	797.293741638795	0.05
2	16287	797.393741638795	0.05
2	16289	797.493741638795	0.05
2	16289	797.514040557985	0.05
2	16291	797.593741638795	0.05
2	16293	797.693741638795	0.05
2	16295	797.793741638795	0.05
2	16297	797.893741638795	0.0495
2	16297	797.893741638795	0.0495
2	16299	797.993741638795	0.0499
2	16300	798.042226110985	0.05
2	16301	798.093741638795	0.05
2	16303	798.193741638795	0.05
2	16305	798.293741638795	0.05
2	16307	798.393741638795	0.05
2	16309	798.493741638795	0.05
2	16311	798.593741638795	0.05
2	16312	798.680822079984	0.05
2	16313	798.693741638795	0.05
2	16315	798.793741638795	0.05
2	16317	798.893741638795	0.05
2	16319	798.993741638795	0.05
2	16321	799.093741638795	0.05
2	16323	799.193741638795	0.05
2	16324	799.250713260984	0.05
2	16325	799.293741638795	0.0495
2	16325	799.293741638795	0.0495
2	16327	799.393741638795	0.0499
2	16329	799.493741638795	0.05
2	16331	799.593741638795	0.05
2	16333	799.693741638795	0.05
2	16335	799.793741638795	0.05
2	16335	799.794772689984	0.05
2	16337	799.893741638795	0.05
2	16339	799.993741638795	0.05
2	16341	800.093741638795	0.05
2	16343	800.193741638795	0.05
2	16344	800.249578554984	0.05
2	16345	800.293741638795	0.05
2	16347	800.393741638795	0.05
2	16349	800.493741638795	0.05
2	16351	800.593741638795	0.05
2	16352	800.689499028984	0.05
2	16353	800.693741638795	0.0495
2	16353	800.693741638795	0.0495
2	16355	800.793741638795	0.0499
2	16357	800.893741638795	0.05
2	16359	800.993741638795	0.05
2	16361	801.093741638795	0.05
2	16363	801.193741638795	0.05
2	16363	801.215092791984	0.05
2	16365	801.293741638795	0.05
2	16367	801.393741638795	0.05
2	16369	801.493741638795	0.05
2	16371	801.593741638795	0.05
2	16372	801.687616365984	0.05
2	16373	801.693741638795	0.05
2	16375	801.793741638795	0.05
2	16377	801.893741638795	0.05
2	16379	801.993741638795	0.05
2	16381	802.093741638795	0.05
2	16383	802.193741638795	0.0495
2	16383	802.193741638795	0.0495
2	16384	802.218014127984	0.049597089956756
2	16385	802.293741638795	0.0499
2	16387	802.393741638795	0.05
2	16389	802.493741638795	0.05
2	16391	802.593741638795	0.05
2	16393	802.693741638795	0.05
2	16395	802.793741638795	0.05
2	16396	802.864560936983	0.05
2	16397	802.893741638795	0.05
2	16399	802.993741638795	0.05
2	16401	803.093741638795	0.05
2	16403	803.193741638795	0.05
2	16405	803.293741638795	0.05
2	16406	803.370110061983	0.05
2	16407	803.393741638795	0.05
2	16409	803.493741638795	0.05
2	16411	803.593741638795	0.0495
2	16411	803.593741638795	0.0495
2	16413	803.693741638795	0.0499
2	16415	803.793741638795	0.05
2	16417	803.893741638795	0.05
2	16419	803.993741638795	0.05
2	16421	804.093741638795	0.05
2	16423	804.193741638795	0.05
2	16425	804.293741638795	0.05
2	16427	804.393741638795	0.05
2	16428	804.436943985982	0.05
2	16429	804.493741638795	0.05
2	16431	804.593741638795	0.05
2	16433	804.693741638795	0.05
2	16435	804.793741638795	0.05
2	16437	804.893741638795	0.05
2	16438	804.984896688982	0.05
2	16439	804.993741638795	0.05
2	16441	805.093741638795	0.0495
2	16441	805.093741638795	0.0495
2	16443	805.193741638795	0.0499
2	16445	805.293741638795	0.05
2	16447	805.393741638795	0.05
2	16449	805.493741638795	0.05
2	16450	805.549506327982	0.05
2	16451	805.593741638795	0.05
2	16453	805.693741638795	0.05
2	16455	805.793741638795	0.05
2	16457	805.893741638795	0.05
2	16459	805.993741638795	0.05
2	16460	806.053928409982	0.05
2	16461	806.093741638795	0.05
2	16463	806.193741638795	0.05
2	16465	806.293741638795	0.05
2	16467	806.393741638795	0.05
2	16469	806.493741638795	0.05
2	16470	806.521606503982	0.05
2	16471	806.593741638795	0.05
2	16473	806.693741638795	0.05
2	16475	806.793741638795	0.05
2	16477	806.893741638795	0.05
2	16479	806.993741638795	0.05
2	16481	807.093741638795	0.05
2	16483	807.193741638795	0.05
2	16484	807.222184554981	0.05
2	16485	807.293741638795	0.05
2	16487	807.393741638795	0.05
2	16489	807.493741638795	0.05
2	16491	807.593741638795	0.05
2	16493	807.693741638795	0.05
2	16495	807.793741638795	0.05
2	16496	807.878710422981	0.05
2	16496	807.893741638795	0.05
3	0	0	0.004
3	944	46.974101355068	0
3	2005	99.668610315155	0.004
3	2079	102.264052057897	0
3	2580	127.236746305651	0.004
3	4663	228.48137970929	0
3	4833	236.938934970367	0.004
3	5434	266.271270561027	0
3	6445	316.482850676799	0.004
3	6772	331.789031216275	0
3	7895	386.548731216186	0.004
3	8296	405.282802378216	0
3	8551	417.941424746605	0.004
3	8689	424.504897948644	0
3	9245	452.142180186788	0.004
3	11321	554.711087700847	0
3	12131	593.984772631607	0.004
3	13278	650.225969104765	0
3	13546	663.519157164286	0.004
3	13913	681.406864344193	0
3	13992	684.80233355568	0.004
3	14803	724.913022269759	0
3	15094	739.341313470043	0.004
3	15340	750.941246856572	0
3	15713	769.523264626245	0.004
4	0	0	0.004
4	461	23.08057828677	0
4	514	25.654787379751	0.004
4	801	39.859049473309	0
4	989	49.149443344006	0.004
4	2789	137.228226874741	0
4	3347	165.073140845054	0.004
4	3544	173.91762870849	0
4	3988	195.931356812102	0.004
4	4198	205.730505392773	0
4	4357	213.639970725273	0.004
4	4486	219.760869748356	0
4	4524	221.62180741496	0.004
4	4616	226.180986253062	0
4	4988	244.573183546529	0.004
4	5541	271.564825015864	0
4	5696	279.263986348429	0.004
4	5972	292.910069672272	0
4	6899	338.101891302461	0.004
4	7192	352.006547916731	0
4	7478	366.210482420279	0.004
4	7498	366.855635914524	0
4	7847	384.318436996692	0.004
4	7910	387.026012395084	0
4	8056	393.341462781516	0.004
4	9103	445.108514228144	0
4	9750	476.604118745672	0.004
4	10111	494.339453057026	0
4	12007	588.8432663104	0.004
4	13014	637.129891443251	0
4	13037	638.193979102824	0.004
4	13424	657.473397610084	0
4	13960	683.706530690162	0.004
4	14793	724.440050488199	0
4	15148	741.809033034184	0.004
4	15740	770.472090952212	0
4	16075	786.890720464449	0.004
4	16234	794.776503773524	0
5	0	0	0.004
5	944	46.974101355068	0
5	2005	99.668610315155	0.004
5	2079	102.264052057897	0
5	2580	127.236746305651	0.004
5	4663	228.48137970929	0
5	4833	236.938934970367	0.004
5	5434	266.271270561027	0
5	6445	316.482850676799	0.004
5	6772	331.789031216275	0
5	7895	386.548731216186	0.004
5	8296	405.282802378216	0
5	8551	417.941424746605	0.004
5	8689	424.504897948644	0
5	9245	452.142180186788	0.004
5	11321	554.711087700847	0
5	12131	593.984772631607	0.004
5	13278	650.225969104765	0
5	13546	663.519157164286	0.004
5	13913	681.406864344193	0
5	13992	684.80233355568	0.004
5	14803	724.913022269759	0
5	15094	739.341313470043	0.004
5	15340	750.941246856572	0
5	15713	769.523264626245	0.004

