version 2
run Mysterio_ex2-0-20210907-21:42:24-2917
attr configname Mysterio_ex2
attr datetime 20210907-21:42:24
attr experiment Mysterio_ex2
attr inifile omnetpp.ini
attr iterationvars ""
attr iterationvarsf ""
attr measurement ""
attr network MysterioCommunication2
attr processid 2917
attr repetition 0
attr replication #0
attr resultdir results
attr runnumber 0
attr seedset 0
param *.host[*].mobility.numeroDrones 2
param *.numHosts 2
param *.host[*].osgModel "\"3d/drone.ive.100.scale.0,0,90.rot\""
param *.basestation.osgModel "\"3d/car.ive.50.scale.0,0,90.rot\""
param *.canvasVisualizer.energyStorageVisualizer.displayEnergyStorages true
param *.host[*].hasStatus true
param *.host[*].energyStorage.typename "\"SimpleEpEnergyStorage\""
param *.host[*].wlan[*].radio.energyConsumer.typename "\"StateBasedEpEnergyConsumer\""
param *.host[*].energyManagement.typename "\"SimpleEpEnergyManagement\""
param *.host[*].energyStorage.nominalCapacity 0.05J
param *.host[*].energyManagement.nodeShutdownCapacity "0.1 * energyStorage.nominalCapacity"
param *.host[*].energyManagement.nodeStartCapacity "0.5 * energyStorage.nominalCapacity"
param *.host[*].energyStorage.initialCapacity 0.05J
param *.host[*].energyGenerator.typename "\"AlternatingEpEnergyGenerator\""
param *.host[*].energyGenerator.powerGeneration 4mW
param *.host[*].energyGenerator.sleepInterval exponential(25s)
param *.host[*].energyGenerator.generationInterval exponential(25s)
param *.host[*].mobility.typename "\"UAVMobility\""
param *.host[*].mobility.changeInterval 1s
param *.host[*].mobility.initialMovementHeading "uniform(0deg, 360deg)"
param *.host[*].mobility.initialMovementElevation "uniform(-90deg, 90deg)"
param *.host[*].mobility.angleDelta uniform(-10deg,10deg)
param *.host[*].mobility.rotationAxisAngle uniform(-10deg,10deg)
param *.host[*].mobility.speed uniform(10mps,20mps)
param *.host[*].mobility.faceForward false
param *.host[*].mobility.initialX 220m
param *.host[*].mobility.initialY 220m
param *.host[*].mobility.initialZ 80m
param *.visualizer.osgVisualizer.typename "\"IntegratedOsgVisualizer\""
param *.visualizer.osgVisualizer.sceneVisualizer.clearColor "\"skyblue\""
param *.visualizer.osgVisualizer.sceneVisualizer.sceneImage "\"showcases/desert\""
param *.visualizer.osgVisualizer.sceneVisualizer.sceneImageSize 5000m
param *.visualizer.osgVisualizer.sceneVisualizer.axisLength 1000m
param *.visualizer.osgVisualizer.sceneVisualizer.sceneMinX -2000m
param *.visualizer.osgVisualizer.sceneVisualizer.sceneMinY -2000m
param *.visualizer.osgVisualizer.sceneVisualizer.sceneMinZ 0m
param *.visualizer.osgVisualizer.sceneVisualizer.sceneMaxX 3000m
param *.visualizer.osgVisualizer.sceneVisualizer.sceneMaxY 3000m
param *.visualizer.osgVisualizer.sceneVisualizer.sceneMaxZ 1000m
param *.visualizer.osgVisualizer.networkNodeVisualizer.displayModuleName false
param *.visualizer.*.mobilityVisualizer.displayMobility true
param *.visualizer.*.mobilityVisualizer.displayPositions true
param *.visualizer.*.mobilityVisualizer.displayOrientations false
param *.visualizer.*.mobilityVisualizer.displayVelocities true
param *.visualizer.*.mobilityVisualizer.displayMovementTrails true
param *.visualizer.*.mobilityVisualizer.animationSpeed 3
param **.constraintAreaMinX 0m
param **.constraintAreaMinY 0m
param **.constraintAreaMinZ 0m
param **.constraintAreaMaxX 1000m
param **.constraintAreaMaxY 1000m
param **.constraintAreaMaxZ 1000m
param **.networkConfiguratorModule "\"\""

vector 0 MysterioCommunication2.host[0].energyStorage residualEnergyCapacity:vector ETV
attr interpolationmode linear
attr source residualEnergyCapacityChanged
attr title "Residual energy capacity, vector"
vector 1 MysterioCommunication2.host[0].energyGenerator powerGeneration:vector ETV
attr interpolationmode sample-hold
attr source powerGenerationChanged
attr title "Power generation, vector"
vector 2 MysterioCommunication2.host[1].energyStorage residualEnergyCapacity:vector ETV
attr interpolationmode linear
attr source residualEnergyCapacityChanged
attr title "Residual energy capacity, vector"
vector 3 MysterioCommunication2.host[1].energyGenerator powerGeneration:vector ETV
attr interpolationmode sample-hold
attr source powerGenerationChanged
attr title "Power generation, vector"
vector 4 MysterioCommunication2.host[0].energyStorage powerGeneration:vector ETV
attr interpolationmode sample-hold
attr source powerGenerationChanged
attr title "Power generation, vector"
vector 5 MysterioCommunication2.host[1].energyStorage powerGeneration:vector ETV
attr interpolationmode sample-hold
attr source powerGenerationChanged
attr title "Power generation, vector"
0	0	0	0.05
0	0	0.1	0.05
0	2	0.145903561	0.05
0	3	0.2	0.05
0	5	0.3	0.05
0	7	0.4	0.05
0	8	0.415207729	0.05
0	9	0.5	0.05
0	11	0.6	0.05
0	13	0.7	0.05
0	15	0.8	0.05
0	16	0.873019081	0.05
0	17	0.9	0.05
0	19	1	0.05
0	21	1.1	0.05
0	23	1.2	0.05
0	25	1.3	0.05
0	27	1.4	0.05
0	29	1.5	0.05
0	30	1.555792945	0.05
0	31	1.6	0.05
0	33	1.7	0.05
0	34	1.798132834	0.05
0	35	1.8	0.05
0	37	1.9	0.05
0	39	2	0.05
0	40	2.089111315	0.05
0	41	2.1	0.05
0	43	2.2	0.05
0	45	2.3	0.05
0	47	2.4	0.05
0	49	2.5	0.05
0	50	2.545172245	0.05
0	51	2.6	0.05
0	53	2.7	0.05
0	55	2.8	0.05
0	57	2.9	0.05
0	59	3	0.05
0	60	3.038737663	0.05
0	61	3.1	0.05
0	63	3.2	0.05
0	65	3.3	0.05
0	66	3.302346484	0.05
0	67	3.4	0.05
0	69	3.5	0.05
0	70	3.565808989	0.05
0	71	3.6	0.05
0	73	3.7	0.05
0	75	3.8	0.05
0	76	3.828575104	0.05
0	77	3.9	0.05
0	79	4	0.05
0	80	4.091128702	0.05
0	81	4.1	0.05
0	83	4.2	0.05
0	85	4.3	0.05
0	87	4.4	0.05
0	88	4.499577781	0.05
0	89	4.5	0.05
0	91	4.6	0.05
0	93	4.7	0.05
0	94	4.754442805	0.05
0	95	4.8	0.05
0	97	4.9	0.05
0	99	5	0.05
0	100	5.021117458	0.05
0	101	5.1	0.05
0	103	5.2	0.05
0	105	5.3	0.05
0	107	5.4	0.05
0	108	5.421484189	0.05
0	109	5.5	0.05
0	111	5.6	0.05
0	113	5.7	0.05
0	114	5.718197149	0.05
0	115	5.8	0.05
0	117	5.9	0.05
0	119	6	0.05
0	121	6.1	0.05
0	123	6.2	0.05
0	124	6.221579494	0.05
0	125	6.3	0.05
0	127	6.4	0.05
0	128	6.489568045	0.05
0	129	6.5	0.05
0	131	6.6	0.05
0	133	6.7	0.05
0	135	6.8	0.05
0	137	6.9	0.05
0	138	6.96860851	0.05
0	139	7	0.05
0	141	7.1	0.05
0	143	7.2	0.05
0	145	7.3	0.05
0	146	7.376469031	0.05
0	147	7.4	0.05
0	149	7.5	0.05
0	151	7.6	0.05
0	152	7.649752459	0.05
0	153	7.7	0.05
0	155	7.8	0.05
0	156	7.871982811	0.0495
0	156	7.871982811	0.0495
0	157	7.9	0.049612068756
0	159	8	0.05
0	161	8.1	0.05
0	163	8.2	0.05
0	165	8.3	0.05
0	166	8.313173062	0.05
0	167	8.4	0.05
0	169	8.5	0.05
0	171	8.6	0.05
0	173	8.7	0.05
0	175	8.8	0.05
0	177	8.9	0.05
0	178	8.901630187	0.05
0	179	9	0.05
0	181	9.1	0.05
0	182	9.118325944	0.05
0	183	9.2	0.05
0	185	9.3	0.05
0	186	9.398871037	0.05
0	187	9.4	0.05
0	189	9.5	0.05
0	191	9.6	0.05
0	192	9.681939676	0.05
0	193	9.7	0.05
0	195	9.8	0.05
0	197	9.9	0.05
0	199	10	0.05
0	201	10.1	0.05
0	202	10.181387098	0.05
0	203	10.2	0.05
0	205	10.3	0.05
0	207	10.4	0.05
0	209	10.5	0.05
0	211	10.6	0.05
0	212	10.63592323	0.05
0	213	10.7	0.05
0	215	10.8	0.05
0	217	10.9	0.05
0	218	10.933256749	0.05
0	219	11	0.05
0	221	11.1	0.05
0	223	11.2	0.05
0	225	11.3	0.05
0	226	11.34098329	0.05
0	227	11.4	0.05
0	229	11.5	0.05
0	230	11.596720375	0.05
0	231	11.6	0.05
0	233	11.7	0.05
0	235	11.8	0.05
0	237	11.9	0.05
0	239	12	0.05
0	240	12.029056675	0.05
0	241	12.1	0.05
0	243	12.2	0.05
0	245	12.3	0.05
0	247	12.4	0.05
0	248	12.46519291	0.05
0	249	12.5	0.05
0	251	12.6	0.05
0	252	12.675340603	0.05
0	253	12.7	0.05
0	255	12.8	0.05
0	257	12.9	0.05
0	258	12.938449999	0.05
0	259	13	0.05
0	261	13.1	0.05
0	263	13.2	0.05
0	265	13.3	0.05
0	266	13.362481324	0.05
0	267	13.4	0.05
0	269	13.5	0.05
0	271	13.6	0.05
0	273	13.7	0.05
0	275	13.8	0.05
0	276	13.851499177	0.05
0	277	13.9	0.05
0	279	14	0.05
0	281	14.1	0.05
0	283	14.2	0.05
0	285	14.3	0.05
0	286	14.389550296	0.05
0	287	14.4	0.05
0	289	14.5	0.05
0	291	14.6	0.05
0	293	14.7	0.05
0	295	14.8	0.05
0	296	14.875566751	0.05
0	297	14.9	0.05
0	299	15	0.05
0	301	15.1	0.05
0	302	15.151591297	0.05
0	303	15.2	0.05
0	305	15.3	0.05
0	307	15.4	0.05
0	309	15.5	0.05
0	311	15.6	0.05
0	312	15.679650445	0.05
0	313	15.7	0.05
0	315	15.8	0.05
0	317	15.9	0.05
0	319	16	0.05
0	321	16.1	0.05
0	322	16.144979554	0.05
0	323	16.2	0.05
0	325	16.3	0.05
0	327	16.4	0.05
0	329	16.5	0.05
0	330	16.59135004	0.05
0	331	16.6	0.05
0	333	16.7	0.05
0	335	16.8	0.05
0	336	16.84633258	0.05
0	337	16.9	0.05
0	339	17	0.05
0	341	17.1	0.05
0	343	17.2	0.05
0	344	17.293720192	0.05
0	345	17.3	0.05
0	347	17.4	0.05
0	349	17.5	0.05
0	351	17.6	0.05
0	353	17.7	0.05
0	354	17.749455463	0.05
0	355	17.8	0.05
0	357	17.9	0.05
0	359	18	0.05
0	361	18.1	0.05
0	363	18.2	0.05
0	364	18.24563929	0.05
0	365	18.3	0.05
0	367	18.4	0.05
0	369	18.5	0.05
0	371	18.6	0.05
0	373	18.7	0.05
0	375	18.8	0.05
0	376	18.837815494	0.05
0	377	18.9	0.05
0	379	19	0.05
0	381	19.1	0.05
0	383	19.2	0.05
0	385	19.3	0.05
0	386	19.364890525	0.05
0	387	19.4	0.05
0	389	19.5	0.05
0	391	19.6	0.05
0	392	19.660847308	0.05
0	393	19.7	0.05
0	395	19.8	0.05
0	397	19.9	0.05
0	399	20	0.05
0	400	20.097302746	0.05
0	401	20.1	0.05
0	403	20.2	0.05
0	405	20.3	0.05
0	406	20.394160891	0.05
0	407	20.4	0.05
0	409	20.5	0.05
0	411	20.6	0.05
0	412	20.629047505	0.05
0	413	20.7	0.05
0	415	20.8	0.05
0	417	20.9	0.05
0	419	21	0.05
0	421	21.1	0.05
0	422	21.13670368	0.05
0	423	21.2	0.05
0	425	21.3	0.05
0	427	21.4	0.05
0	428	21.404855479	0.0495
0	428	21.404855479	0.0495
0	429	21.5	0.049880578084
0	431	21.6	0.05
0	433	21.7	0.05
0	435	21.8	0.05
0	436	21.843497611	0.05
0	437	21.9	0.05
0	439	22	0.05
0	441	22.1	0.05
0	443	22.2	0.05
0	445	22.3	0.05
0	446	22.356464434	0.05
0	447	22.4	0.05
0	449	22.5	0.05
0	451	22.6	0.05
0	453	22.7	0.05
0	455	22.8	0.05
0	457	22.9	0.05
0	458	22.974134866	0.05
0	459	23	0.05
0	461	23.08057828677	0.05
0	462	23.1	0.05
0	464	23.2	0.05
0	465	23.260788391	0.05
0	466	23.3	0.05
0	468	23.4	0.05
0	470	23.5	0.05
0	472	23.6	0.05
0	474	23.7	0.05
0	475	23.727073252	0.05
0	476	23.8	0.05
0	478	23.9	0.05
0	480	24	0.05
0	482	24.1	0.05
0	484	24.2	0.05
0	485	24.237080992	0.05
0	486	24.3	0.05
0	488	24.4	0.05
0	490	24.5	0.05
0	492	24.6	0.05
0	494	24.7	0.05
0	495	24.710503537	0.05
0	496	24.8	0.05
0	498	24.9	0.05
0	500	25	0.05
0	502	25.1	0.05
0	503	25.164465334	0.05
0	504	25.2	0.05
0	506	25.3	0.05
0	508	25.4	0.05
0	510	25.5	0.05
0	511	25.583762911	0.05
0	512	25.6	0.0495
0	512	25.6	0.0495
0	514	25.7	0.0495
0	516	25.8	0.0495
0	518	25.9	0.0495
0	520	26	0.0495
0	521	26.071463416	0.0495
0	522	26.1	0.0495
0	524	26.2	0.0495
0	526	26.3	0.0495
0	528	26.4	0.0495
0	530	26.5	0.0495
0	531	26.56673011	0.0495
0	532	26.6	0.0495
0	534	26.7	0.0495
0	536	26.8	0.0495
0	538	26.9	0.0495
0	540	27	0.0495
0	541	27.092171683	0.0495
0	542	27.1	0.0495
0	544	27.2	0.0495
0	546	27.3	0.0495
0	548	27.4	0.0495
0	550	27.5	0.0495
0	551	27.535965568	0.0495
0	552	27.6	0.0495
0	554	27.7	0.0495
0	556	27.8	0.0495
0	558	27.9	0.0495
0	560	28	0.0495
0	561	28.001450263	0.0495
0	562	28.1	0.0495
0	564	28.2	0.0495
0	566	28.3	0.0495
0	568	28.4	0.0495
0	570	28.5	0.049005
0	570	28.5	0.049005
0	571	28.521386524	0.049005
0	572	28.6	0.049005
0	574	28.7	0.049005
0	576	28.8	0.049005
0	577	28.802493958	0.049005
0	578	28.9	0.049005
0	580	29	0.049005
0	582	29.1	0.049005
0	584	29.2	0.049005
0	586	29.3	0.049005
0	587	29.322344917	0.049005
0	588	29.4	0.049005
0	590	29.5	0.049005
0	592	29.6	0.049005
0	594	29.7	0.049005
0	595	29.775363919	0.049005
0	596	29.8	0.04851495
0	596	29.8	0.04851495
0	598	29.9	0.04851495
0	599	29.99747701	0.04851495
0	600	30	0.04851495
0	602	30.1	0.04851495
0	604	30.2	0.04851495
0	606	30.3	0.04851495
0	607	30.386823487	0.04851495
0	608	30.4	0.04851495
0	610	30.5	0.04851495
0	612	30.6	0.04851495
0	614	30.7	0.04851495
0	616	30.8	0.04851495
0	617	30.866672518	0.04851495
0	618	30.9	0.04851495
0	620	31	0.04851495
0	622	31.1	0.04851495
0	624	31.2	0.0480298005
0	624	31.2	0.0480298005
0	626	31.3	0.0480298005
0	628	31.4	0.0480298005
0	629	31.428044209	0.0480298005
0	630	31.5	0.0480298005
0	632	31.6	0.0480298005
0	634	31.7	0.0480298005
0	636	31.8	0.0480298005
0	637	31.86420643	0.0480298005
0	638	31.9	0.0480298005
0	640	32	0.0480298005
0	642	32.1	0.0480298005
0	644	32.2	0.0480298005
0	645	32.276135437	0.0480298005
0	646	32.3	0.0480298005
0	648	32.4	0.0480298005
0	650	32.5	0.0480298005
0	652	32.6	0.047549502495
0	652	32.6	0.047549502495
0	654	32.7	0.047549502495
0	655	32.739247828	0.047549502495
0	656	32.8	0.047549502495
0	658	32.9	0.047549502495
0	660	33	0.047549502495
0	662	33.1	0.047549502495
0	663	33.172733656	0.047549502495
0	664	33.2	0.047549502495
0	666	33.3	0.047549502495
0	668	33.4	0.047549502495
0	669	33.466397416	0.047549502495
0	670	33.5	0.047549502495
0	672	33.6	0.047549502495
0	674	33.7	0.047549502495
0	676	33.8	0.047549502495
0	678	33.9	0.047549502495
0	680	34	0.04707400747005
0	680	34	0.04707400747005
0	681	34.050185146	0.04707400747005
0	682	34.1	0.04707400747005
0	684	34.2	0.04707400747005
0	686	34.3	0.04707400747005
0	688	34.4	0.04707400747005
0	690	34.5	0.04707400747005
0	692	34.6	0.04707400747005
0	693	34.634082784	0.04707400747005
0	694	34.7	0.04707400747005
0	696	34.8	0.04707400747005
0	698	34.9	0.04707400747005
0	700	35	0.04707400747005
0	702	35.1	0.04707400747005
0	703	35.175686086	0.04707400747005
0	704	35.2	0.04707400747005
0	706	35.3	0.04707400747005
0	708	35.4	0.04660326739535
0	708	35.4	0.04660326739535
0	710	35.5	0.04660326739535
0	712	35.6	0.04660326739535
0	714	35.7	0.04660326739535
0	716	35.8	0.04660326739535
0	717	35.822152015	0.04660326739535
0	718	35.9	0.04660326739535
0	720	36	0.04660326739535
0	722	36.1	0.04660326739535
0	724	36.2	0.04660326739535
0	726	36.3	0.04660326739535
0	728	36.4	0.04660326739535
0	729	36.434341333	0.04660326739535
0	730	36.5	0.04660326739535
0	732	36.6	0.04660326739535
0	734	36.7	0.04660326739535
0	736	36.8	0.04660326739535
0	737	36.87134725	0.04660326739535
0	738	36.9	0.04660326739535
0	740	37	0.04660326739535
0	742	37.1	0.04660326739535
0	744	37.2	0.04660326739535
0	746	37.3	0.04660326739535
0	748	37.4	0.04660326739535
0	749	37.437917875	0.04660326739535
0	750	37.5	0.04660326739535
0	752	37.6	0.04660326739535
0	754	37.7	0.04660326739535
0	756	37.8	0.04660326739535
0	758	37.9	0.04660326739535
0	759	37.971131104	0.04660326739535
0	760	38	0.04660326739535
0	762	38.1	0.04660326739535
0	764	38.2	0.04660326739535
0	765	38.260165975	0.04660326739535
0	766	38.3	0.04660326739535
0	768	38.4	0.04660326739535
0	770	38.5	0.04660326739535
0	771	38.548799701	0.04660326739535
0	772	38.6	0.04660326739535
0	774	38.7	0.04660326739535
0	776	38.8	0.04660326739535
0	778	38.9	0.04660326739535
0	780	39	0.04660326739535
0	781	39.026236393	0.04660326739535
0	782	39.1	0.04660326739535
0	784	39.2	0.04660326739535
0	786	39.3	0.04660326739535
0	788	39.4	0.04660326739535
0	790	39.5	0.04660326739535
0	792	39.6	0.04660326739535
0	793	39.61537075	0.04660326739535
0	794	39.7	0.04660326739535
0	796	39.8	0.04660326739535
0	798	39.9	0.04660326739535
0	800	40	0.04660326739535
0	801	40.080403768	0.04660326739535
0	802	40.1	0.04660326739535
0	804	40.2	0.04660326739535
0	806	40.3	0.04660326739535
0	808	40.4	0.04660326739535
0	810	40.5	0.04660326739535
0	811	40.524036271	0.04660326739535
0	812	40.6	0.04660326739535
0	814	40.7	0.04660326739535
0	816	40.8	0.04660326739535
0	818	40.9	0.04660326739535
0	819	40.95901537	0.04660326739535
0	820	41	0.046137234721396
0	820	41	0.046137234721396
0	822	41.1	0.046137234721396
0	823	41.173433425	0.046137234721396
0	824	41.2	0.046137234721396
0	826	41.3	0.046137234721396
0	828	41.4	0.046137234721396
0	830	41.5	0.046137234721396
0	831	41.561930857	0.046137234721396
0	832	41.6	0.046137234721396
0	834	41.7	0.046137234721396
0	836	41.8	0.046137234721396
0	838	41.9	0.046137234721396
0	840	42	0.046137234721396
0	841	42.012691654	0.046137234721396
0	842	42.1	0.046137234721396
0	844	42.2	0.046137234721396
0	846	42.3	0.046137234721396
0	848	42.4	0.045675862374182
0	848	42.4	0.045675862374182
0	850	42.5	0.045675862374182
0	851	42.508507462	0.045675862374182
0	852	42.6	0.045675862374182
0	854	42.7	0.045675862374182
0	856	42.8	0.045675862374182
0	857	42.894713389	0.045675862374182
0	858	42.9	0.045675862374182
0	860	43	0.045675862374182
0	862	43.1	0.045675862374182
0	864	43.2	0.045675862374182
0	865	43.293040255	0.045675862374182
0	866	43.3	0.045675862374182
0	868	43.4	0.045675862374182
0	870	43.5	0.045675862374182
0	872	43.6	0.045675862374182
0	874	43.7	0.045675862374182
0	875	43.759757473	0.045675862374182
0	876	43.8	0.045675862374182
0	878	43.9	0.045675862374182
0	880	44	0.045675862374182
0	882	44.1	0.045675862374182
0	884	44.2	0.045675862374182
0	886	44.3	0.045675862374182
0	887	44.342087056	0.045675862374182
0	888	44.4	0.045675862374182
0	890	44.5	0.045675862374182
0	892	44.6	0.045675862374182
0	893	44.638970806	0.045675862374182
0	894	44.7	0.045675862374182
0	896	44.8	0.045675862374182
0	898	44.9	0.045675862374182
0	900	45	0.045675862374182
0	902	45.1	0.045675862374182
0	903	45.126204781	0.045675862374182
0	904	45.2	0.045675862374182
0	906	45.3	0.045675862374182
0	908	45.4	0.045675862374182
0	910	45.5	0.045675862374182
0	911	45.505350175	0.045675862374182
0	912	45.6	0.045675862374182
0	914	45.7	0.045675862374182
0	915	45.782672047	0.045675862374182
0	916	45.8	0.045675862374182
0	918	45.9	0.045675862374182
0	920	46	0.045675862374182
0	922	46.1	0.045675862374182
0	924	46.2	0.045675862374182
0	925	46.229960323	0.045675862374182
0	926	46.3	0.045675862374182
0	928	46.4	0.045675862374182
0	930	46.5	0.04521910375044
0	930	46.5	0.04521910375044
0	931	46.509310561	0.04521910375044
0	932	46.6	0.04521910375044
0	934	46.7	0.04521910375044
0	936	46.8	0.04521910375044
0	938	46.9	0.04521910375044
0	940	46.991037736	0.04521910375044
0	941	47	0.04521910375044
0	943	47.1	0.04521910375044
0	945	47.2	0.04521910375044
0	947	47.3	0.04521910375044
0	949	47.4	0.04521910375044
0	950	47.487711286	0.04521910375044
0	951	47.5	0.04521910375044
0	953	47.6	0.04521910375044
0	955	47.7	0.04521910375044
0	957	47.8	0.04521910375044
0	958	47.88568057	0.04521910375044
0	959	47.9	0.04521910375044
0	961	48	0.04521910375044
0	963	48.1	0.04521910375044
0	965	48.2	0.04521910375044
0	967	48.3	0.04521910375044
0	968	48.391351783	0.04521910375044
0	969	48.4	0.04521910375044
0	971	48.5	0.04521910375044
0	973	48.6	0.04521910375044
0	975	48.7	0.04521910375044
0	977	48.8	0.04521910375044
0	978	48.821931856	0.04521910375044
0	979	48.9	0.04521910375044
0	981	49	0.04521910375044
0	983	49.1	0.04521910375044
0	985	49.2	0.04521910375044
0	987	49.3	0.04521910375044
0	988	49.346409583	0.04521910375044
0	989	49.4	0.04521910375044
0	991	49.5	0.04521910375044
0	993	49.6	0.04521910375044
0	995	49.7	0.04521910375044
0	996	49.753442677	0.04521910375044
0	997	49.8	0.04521910375044
0	999	49.9	0.04521910375044
0	1001	50	0.04521910375044
0	1003	50.1	0.04521910375044
0	1005	50.2	0.04521910375044
0	1006	50.221155307	0.04521910375044
0	1007	50.3	0.04521910375044
0	1009	50.4	0.04521910375044
0	1011	50.5	0.04521910375044
0	1013	50.6	0.04521910375044
0	1014	50.65097971	0.04521910375044
0	1016	50.7	0.04521910375044
0	1018	50.8	0.04521910375044
0	1020	50.9	0.04521910375044
0	1021	50.952763834445	0.04521910375044
0	1023	51	0.04540804841266
0	1024	51.022987896835	0.0455
0	1026	51.1	0.04580804841266
0	1027	51.147987896835	0.046
0	1027	51.163719001	0.04606292441666
0	1029	51.2	0.04620804841266
0	1030	51.272987896835	0.0465
0	1032	51.3	0.04660804841266
0	1034	51.397987896835	0.047
0	1035	51.4	0.04700804841266
0	1037	51.5	0.04740804841266
0	1038	51.522987896835	0.0475
0	1040	51.6	0.04780804841266
0	1040	51.634168198	0.04794472120466
0	1041	51.647987896835	0.048
0	1043	51.7	0.04820804841266
0	1044	51.772987896835	0.0485
0	1046	51.8	0.04860804841266
0	1048	51.897987896835	0.049
0	1049	51.9	0.04900804841266
0	1051	52	0.04940804841266
0	1052	52.022987896835	0.0495
0	1053	52.095800404	0.04979125002866
0	1054	52.1	0.04980804841266
0	1055	52.147987896835	0.05
0	1057	52.2	0.05
0	1059	52.3	0.05
0	1060	52.39599562	0.05
0	1061	52.4	0.05
0	1063	52.5	0.05
0	1065	52.6	0.05
0	1067	52.7	0.05
0	1069	52.8	0.05
0	1069	52.806984328	0.05
0	1071	52.9	0.05
0	1073	53	0.05
0	1075	53.1	0.05
0	1077	53.2	0.05
0	1079	53.3	0.05
0	1081	53.4	0.05
0	1081	53.406060337	0.05
0	1083	53.5	0.05
0	1085	53.6	0.05
0	1087	53.7	0.05
0	1089	53.8	0.05
0	1091	53.9	0.05
0	1092	53.987057629	0.05
0	1093	54	0.05
0	1095	54.1	0.05
0	1097	54.2	0.05
0	1099	54.3	0.05
0	1101	54.4	0.05
0	1101	54.451478731	0.05
0	1103	54.5	0.05
0	1105	54.6	0.05
0	1107	54.7	0.05
0	1107	54.722526583	0.05
0	1109	54.8	0.05
0	1111	54.9	0.05
0	1113	55	0.05
0	1115	55.1	0.05
0	1117	55.2	0.05
0	1117	55.266934057	0.05
0	1119	55.3	0.05
0	1121	55.4	0.05
0	1123	55.5	0.05
0	1125	55.6	0.05
0	1127	55.7	0.05
0	1127	55.775744494	0.05
0	1129	55.8	0.05
0	1131	55.9	0.05
0	1133	56	0.05
0	1135	56.1	0.05
0	1137	56.2	0.05
0	1137	56.276399347	0.05
0	1139	56.3	0.05
0	1141	56.4	0.05
0	1143	56.5	0.05
0	1145	56.6	0.05
0	1147	56.7	0.05
0	1148	56.769634267061	0.05
0	1150	56.869634267061	0.05
0	1151	56.898820111	0.05
0	1152	56.969634267061	0.05
0	1154	57.069634267061	0.05
0	1156	57.169634267061	0.0495
0	1156	57.169634267061	0.0495
0	1158	57.269634267061	0.0499
0	1160	57.369634267061	0.05
0	1162	57.469634267061	0.05
0	1164	57.569634267061	0.05
0	1165	57.614880352	0.05
0	1166	57.669634267061	0.05
0	1168	57.769634267061	0.05
0	1170	57.869634267061	0.05
0	1172	57.969634267061	0.05
0	1174	58.069634267061	0.05
0	1176	58.169634267061	0.05
0	1177	58.217474218	0.05
0	1178	58.269634267061	0.05
0	1180	58.369634267061	0.05
0	1182	58.469634267061	0.05
0	1184	58.569634267061	0.05
0	1186	58.669634267061	0.0495
0	1186	58.669634267061	0.0495
0	1188	58.769634267061	0.0499
0	1189	58.798129549	0.05
0	1190	58.869634267061	0.05
0	1192	58.969634267061	0.05
0	1194	59.069634267061	0.05
0	1196	59.169634267061	0.05
0	1198	59.269634267061	0.05
0	1198	59.270385928	0.05
0	1200	59.369634267061	0.05
0	1202	59.469634267061	0.05
0	1204	59.569634267061	0.05
0	1206	59.669634267061	0.05
0	1207	59.738955736	0.05
0	1208	59.769634267061	0.05
0	1210	59.869634267061	0.05
0	1212	59.969634267061	0.05
0	1214	60.069634267061	0.0495
0	1214	60.069634267061	0.0495
0	1216	60.169634267061	0.0499
0	1217	60.2660785	0.05
0	1218	60.269634267061	0.05
0	1220	60.369634267061	0.05
0	1222	60.469634267061	0.05
0	1224	60.569634267061	0.05
0	1226	60.669634267061	0.05
0	1228	60.769634267061	0.05
0	1229	60.832761094	0.05
0	1230	60.869634267061	0.05
0	1232	60.969634267061	0.05
0	1234	61.069634267061	0.05
0	1236	61.169634267061	0.05
0	1238	61.269634267061	0.05
0	1240	61.369634267061	0.05
0	1242	61.469634267061	0.05
0	1242	61.480061887	0.0495
0	1242	61.480061887	0.0495
0	1244	61.569634267061	0.049858289520244
0	1246	61.669634267061	0.05
0	1248	61.769634267061	0.05
0	1250	61.869634267061	0.05
0	1252	61.969634267061	0.05
0	1253	62.06065903	0.05
0	1254	62.069634267061	0.05
0	1256	62.169634267061	0.05
0	1258	62.269634267061	0.05
0	1260	62.369634267061	0.05
0	1262	62.469634267061	0.05
0	1264	62.569634267061	0.05
0	1265	62.629641937	0.05
0	1266	62.669634267061	0.05
0	1268	62.769634267061	0.05
0	1270	62.869634267061	0.05
0	1272	62.969634267061	0.0495
0	1272	62.969634267061	0.0495
0	1274	63.069634267061	0.0499
0	1276	63.169634267061	0.05
0	1277	63.264643675	0.05
0	1278	63.269634267061	0.05
0	1280	63.369634267061	0.05
0	1282	63.469634267061	0.05
0	1284	63.569634267061	0.05
0	1286	63.669634267061	0.05
0	1288	63.769634267061	0.05
0	1289	63.805291	0.05
0	1290	63.869634267061	0.05
0	1292	63.969634267061	0.05
0	1294	64.069634267061	0.05
0	1296	64.169634267061	0.05
0	1298	64.269634267061	0.05
0	1298	64.274438683	0.05
0	1300	64.369634267061	0.0495
0	1300	64.369634267061	0.0495
0	1302	64.469634267061	0.0499
0	1304	64.569634267061	0.05
0	1306	64.669634267061	0.05
0	1308	64.769634267061	0.05
0	1309	64.8373627	0.05
0	1310	64.869634267061	0.05
0	1312	64.969634267061	0.05
0	1314	65.069634267061	0.05
0	1316	65.169634267061	0.05
0	1318	65.269634267061	0.05
0	1320	65.369634267061	0.05
0	1321	65.425731043	0.05
0	1322	65.469634267061	0.05
0	1324	65.569634267061	0.05
0	1326	65.669634267061	0.05
0	1328	65.769634267061	0.05
0	1330	65.869634267061	0.0495
0	1330	65.869634267061	0.0495
0	1332	65.969634267061	0.0499
0	1334	66.069634267061	0.05
0	1334	66.079995805	0.05
0	1336	66.169634267061	0.05
0	1338	66.269634267061	0.05
0	1340	66.369634267061	0.05
0	1342	66.469634267061	0.05
0	1343	66.558129418	0.05
0	1344	66.569634267061	0.05
0	1346	66.669634267061	0.05
0	1348	66.769634267061	0.05
0	1350	66.869634267061	0.05
0	1352	66.969634267061	0.05
0	1354	67.069634267061	0.05
0	1355	67.165550002	0.05
0	1356	67.169634267061	0.05
0	1358	67.269634267061	0.0495
0	1358	67.269634267061	0.0495
0	1360	67.369634267061	0.0499
0	1362	67.469634267061	0.05
0	1364	67.569634267061	0.05
0	1365	67.653197146	0.05
0	1366	67.669634267061	0.05
0	1368	67.769634267061	0.05
0	1370	67.869634267061	0.05
0	1371	67.920871663	0.05
0	1372	67.969634267061	0.05
0	1374	68.069634267061	0.05
0	1376	68.169634267061	0.05
0	1378	68.269634267061	0.05
0	1380	68.369634267061	0.05
0	1382	68.469634267061	0.05
0	1384	68.569634267061	0.05
0	1384	68.578081837	0.05
0	1386	68.669634267061	0.0495
0	1386	68.669634267061	0.0495
0	1388	68.704522475837	0.049639552835104
0	1389	68.769634267061	0.049639552835104
0	1391	68.869634267061	0.049639552835104
0	1393	68.969634267061	0.049639552835104
0	1395	69.069634267061	0.049639552835104
0	1397	69.169634267061	0.049639552835104
0	1398	69.225998911	0.049639552835104
0	1399	69.269634267061	0.049639552835104
0	1401	69.369634267061	0.049639552835104
0	1403	69.469634267061	0.049639552835104
0	1405	69.569634267061	0.049639552835104
0	1407	69.669634267061	0.049639552835104
0	1409	69.769634267061	0.049639552835104
0	1410	69.823025386	0.049639552835104
0	1411	69.869634267061	0.049639552835104
0	1413	69.969634267061	0.049639552835104
0	1415	70.069634267061	0.049639552835104
0	1417	70.169634267061	0.049639552835104
0	1418	70.249829968	0.049639552835104
0	1419	70.269634267061	0.049639552835104
0	1421	70.369634267061	0.049639552835104
0	1423	70.469634267061	0.049639552835104
0	1425	70.569634267061	0.049639552835104
0	1427	70.669634267061	0.049639552835104
0	1429	70.769634267061	0.049639552835104
0	1431	70.869634267061	0.049639552835104
0	1432	70.907009992	0.049639552835104
0	1433	70.969634267061	0.049639552835104
0	1435	71.069634267061	0.049639552835104
0	1437	71.169634267061	0.049639552835104
0	1439	71.269634267061	0.049639552835104
0	1441	71.369634267061	0.049639552835104
0	1441	71.371266577	0.049639552835104
0	1443	71.469634267061	0.049639552835104
0	1445	71.569634267061	0.049639552835104
0	1447	71.669634267061	0.049639552835104
0	1449	71.769634267061	0.049639552835104
0	1450	71.853244429	0.049639552835104
0	1451	71.869634267061	0.049639552835104
0	1453	71.969634267061	0.049639552835104
0	1456	72.069634267061	0.049639552835104
0	1457	72.102187126	0.049639552835104
0	1459	72.169634267061	0.049639552835104
0	1462	72.269634267061	0.049639552835104
0	1465	72.369634267061	0.049639552835104
0	1467	72.469634267061	0.049639552835104
0	1469	72.552482008	0.049639552835104
0	1470	72.569634267061	0.049639552835104
0	1473	72.669634267061	0.049639552835104
0	1476	72.769634267061	0.049639552835104
0	1479	72.869634267061	0.049639552835104
0	1481	72.969634267061	0.049639552835104
0	1484	73.069634267061	0.049639552835104
0	1485	73.098284173	0.049639552835104
0	1487	73.169634267061	0.049639552835104
0	1490	73.269634267061	0.049639552835104
0	1492	73.369634267061	0.049639552835104
0	1494	73.469634267061	0.049639552835104
0	1496	73.569634267061	0.049639552835104
0	1498	73.669634267061	0.049639552835104
0	1499	73.693499269	0.049639552835104
0	1500	73.769634267061	0.049639552835104
0	1502	73.869634267061	0.049143157306753
0	1502	73.869634267061	0.049143157306753
0	1504	73.969634267061	0.049143157306753
0	1506	74.069634267061	0.049143157306753
0	1508	74.169634267061	0.049143157306753
0	1509	74.263350271	0.049143157306753
0	1510	74.269634267061	0.049143157306753
0	1512	74.369634267061	0.049143157306753
0	1514	74.469634267061	0.049143157306753
0	1515	74.528538244	0.049143157306753
0	1516	74.569634267061	0.049143157306753
0	1518	74.669634267061	0.049143157306753
0	1520	74.769634267061	0.049143157306753
0	1522	74.869634267061	0.049143157306753
0	1524	74.969634267061	0.049143157306753
0	1526	75.069634267061	0.049143157306753
0	1527	75.098843395	0.049143157306753
0	1528	75.169634267061	0.049143157306753
0	1530	75.269634267061	0.048651725733685
0	1530	75.269634267061	0.048651725733685
0	1532	75.369634267061	0.048651725733685
0	1534	75.469634267061	0.048651725733685
0	1536	75.569634267061	0.048651725733685
0	1538	75.669634267061	0.048651725733685
0	1539	75.705513445	0.048651725733685
0	1540	75.769634267061	0.048651725733685
0	1542	75.869634267061	0.048651725733685
0	1544	75.969634267061	0.048651725733685
0	1546	76.069634267061	0.048651725733685
0	1548	76.169634267061	0.048651725733685
0	1550	76.269634267061	0.048651725733685
0	1551	76.294349413	0.048651725733685
0	1552	76.369634267061	0.048651725733685
0	1554	76.469634267061	0.048651725733685
0	1556	76.569634267061	0.048651725733685
0	1558	76.669634267061	0.048651725733685
0	1560	76.769634267061	0.048165208476349
0	1560	76.769634267061	0.048165208476349
0	1562	76.869634267061	0.048165208476349
0	1563	76.95453916	0.048165208476349
0	1564	76.969634267061	0.048165208476349
0	1566	77.069634267061	0.048165208476349
0	1568	77.169634267061	0.048165208476349
0	1570	77.269634267061	0.048165208476349
0	1572	77.369634267061	0.048165208476349
0	1573	77.438889658	0.048165208476349
0	1574	77.469634267061	0.048165208476349
0	1576	77.569634267061	0.048165208476349
0	1578	77.669634267061	0.048165208476349
0	1580	77.769634267061	0.048165208476349
0	1582	77.869634267061	0.048165208476349
0	1583	77.90317384	0.048165208476349
0	1584	77.969634267061	0.048165208476349
0	1586	78.069634267061	0.048165208476349
0	1588	78.169634267061	0.047683556391585
0	1588	78.169634267061	0.047683556391585
0	1590	78.269634267061	0.047683556391585
0	1591	78.342513328	0.047683556391585
0	1592	78.369634267061	0.047683556391585
0	1594	78.469634267061	0.047683556391585
0	1596	78.569634267061	0.047683556391585
0	1598	78.669634267061	0.047683556391585
0	1600	78.769634267061	0.047683556391585
0	1601	78.825823282	0.047683556391585
0	1602	78.869634267061	0.047683556391585
0	1604	78.969634267061	0.047683556391585
0	1606	79.069634267061	0.047683556391585
0	1608	79.169634267061	0.047683556391585
0	1610	79.269634267061	0.047683556391585
0	1612	79.369634267061	0.047683556391585
0	1613	79.394463613	0.047683556391585
0	1614	79.469634267061	0.047683556391585
0	1616	79.569634267061	0.047206720827669
0	1616	79.569634267061	0.047206720827669
0	1618	79.669634267061	0.047206720827669
0	1620	79.769634267061	0.047206720827669
0	1621	79.862279683	0.047206720827669
0	1622	79.869634267061	0.047206720827669
0	1624	79.969634267061	0.047206720827669
0	1626	80.069634267061	0.047206720827669
0	1628	80.169634267061	0.047206720827669
0	1630	80.269634267061	0.047206720827669
0	1630	80.277612139	0.047206720827669
0	1632	80.369634267061	0.047206720827669
0	1634	80.469634267061	0.047206720827669
0	1635	80.541245518	0.047206720827669
0	1636	80.569634267061	0.047206720827669
0	1638	80.669634267061	0.047206720827669
0	1640	80.769634267061	0.047206720827669
0	1641	80.833661974	0.047206720827669
0	1642	80.869634267061	0.046734653619393
0	1642	80.869634267061	0.046734653619393
0	1644	80.969634267061	0.046734653619393
0	1646	81.069634267061	0.046734653619393
0	1648	81.169634267061	0.046734653619393
0	1650	81.269634267061	0.046734653619393
0	1650	81.282105805	0.046734653619393
0	1652	81.369634267061	0.046734653619393
0	1654	81.469634267061	0.046734653619393
0	1656	81.569634267061	0.046734653619393
0	1656	81.576732811	0.046734653619393
0	1658	81.669634267061	0.046734653619393
0	1660	81.769634267061	0.046734653619393
0	1662	81.869634267061	0.046734653619393
0	1664	81.969634267061	0.046734653619393
0	1666	82.069634267061	0.046734653619393
0	1666	82.072554469	0.046734653619393
0	1668	82.169634267061	0.046734653619393
0	1670	82.269634267061	0.046267307083199
0	1670	82.269634267061	0.046267307083199
0	1672	82.369634267061	0.046267307083199
0	1674	82.469634267061	0.046267307083199
0	1676	82.569634267061	0.046267307083199
0	1677	82.656007648	0.046267307083199
0	1678	82.669634267061	0.046267307083199
0	1680	82.769634267061	0.046267307083199
0	1682	82.869634267061	0.046267307083199
0	1684	82.969634267061	0.046267307083199
0	1686	83.069634267061	0.046267307083199
0	1687	83.129347627	0.046267307083199
0	1688	83.169634267061	0.046267307083199
0	1690	83.269634267061	0.046267307083199
0	1692	83.369634267061	0.046267307083199
0	1693	83.423205559	0.046267307083199
0	1694	83.469634267061	0.046267307083199
0	1696	83.569634267061	0.046267307083199
0	1698	83.669634267061	0.045804634012367
0	1698	83.669634267061	0.045804634012367
0	1700	83.769634267061	0.045804634012367
0	1702	83.869634267061	0.045804634012367
0	1704	83.969634267061	0.045804634012367
0	1705	83.997261589	0.045804634012367
0	1706	84.069634267061	0.045804634012367
0	1708	84.169634267061	0.045804634012367
0	1710	84.269634267061	0.045804634012367
0	1712	84.369634267061	0.045804634012367
0	1714	84.469634267061	0.045804634012367
0	1715	84.521086309	0.045804634012367
0	1716	84.569634267061	0.045804634012367
0	1718	84.669634267061	0.045804634012367
0	1720	84.769634267061	0.045804634012367
0	1722	84.869634267061	0.045804634012367
0	1724	84.969634267061	0.045804634012367
0	1726	85.069634267061	0.045804634012367
0	1727	85.147113178	0.045804634012367
0	1728	85.169634267061	0.045804634012367
0	1730	85.269634267061	0.045804634012367
0	1732	85.369634267061	0.045804634012367
0	1734	85.469634267061	0.045804634012367
0	1736	85.569634267061	0.045804634012367
0	1738	85.669634267061	0.045804634012367
0	1740	85.769634267061	0.045804634012367
0	1741	85.811342503	0.045804634012367
0	1742	85.869634267061	0.045804634012367
0	1744	85.969634267061	0.045804634012367
0	1746	86.069634267061	0.045804634012367
0	1748	86.169634267061	0.045804634012367
0	1750	86.269634267061	0.045804634012367
0	1752	86.369634267061	0.045804634012367
0	1753	86.435757922	0.045804634012367
0	1754	86.469634267061	0.045804634012367
0	1756	86.569634267061	0.045346587672243
0	1756	86.569634267061	0.045346587672243
0	1758	86.669634267061	0.045346587672243
0	1760	86.769634267061	0.045346587672243
0	1762	86.869634267061	0.045346587672243
0	1764	86.969634267061	0.045346587672243
0	1765	86.98655899	0.045346587672243
0	1766	87.069634267061	0.045346587672243
0	1768	87.169634267061	0.045346587672243
0	1770	87.269634267061	0.045346587672243
0	1772	87.369634267061	0.045346587672243
0	1774	87.469634267061	0.045346587672243
0	1775	87.527530009	0.045346587672243
0	1776	87.569634267061	0.045346587672243
0	1778	87.669634267061	0.045346587672243
0	1780	87.722437521702	0.045346587672243
0	1781	87.760790603641	0.0455
0	1782	87.769634267061	0.04553537465368
0	1783	87.802149547	0.045665435773436
0	1784	87.869634267061	0.045476020907143
0	1784	87.869634267061	0.045476020907143
0	1786	87.885790603641	0.046
0	1787	87.969634267061	0.04633537465368
0	1789	88.010790603641	0.0465
0	1790	88.069634267061	0.04673537465368
0	1792	88.135790603641	0.047
0	1793	88.169634267061	0.04713537465368
0	1794	88.240133995	0.047417373565436
0	1795	88.260790603641	0.0475
0	1796	88.269634267061	0.04753537465368
0	1798	88.369634267061	0.04793537465368
0	1800	88.385790603641	0.048
0	1801	88.469634267061	0.04833537465368
0	1804	88.510790603641	0.0485
0	1805	88.569634267061	0.04873537465368
0	1807	88.635790603641	0.049
0	1808	88.669634267061	0.04913537465368
0	1809	88.740149608	0.049417436017436
0	1810	88.760790603641	0.0495
0	1811	88.769634267061	0.04953537465368
0	1813	88.869634267061	0.04993537465368
0	1814	88.885790603641	0.0495
0	1814	88.885790603641	0.0495
0	1816	88.969634267061	0.04983537465368
0	1818	89.010790603641	0.05
0	1819	89.069634267061	0.05
0	1821	89.169634267061	0.05
0	1822	89.20837762	0.05
0	1824	89.269634267061	0.05
0	1826	89.369634267061	0.05
0	1828	89.469634267061	0.05
0	1830	89.569634267061	0.05
0	1831	89.662040233	0.05
0	1832	89.669634267061	0.05
0	1834	89.769634267061	0.05
0	1836	89.869634267061	0.05
0	1837	89.934504958	0.05
0	1838	89.969634267061	0.05
0	1840	90.069634267061	0.05
0	1842	90.169634267061	0.0495
0	1842	90.169634267061	0.0495
0	1844	90.269634267061	0.0499
0	1846	90.369634267061	0.05
0	1847	90.466957666	0.05
0	1848	90.469634267061	0.05
0	1850	90.569634267061	0.05
0	1852	90.669634267061	0.05
0	1854	90.769634267061	0.05
0	1856	90.869634267061	0.05
0	1857	90.902368498	0.05
0	1858	90.969634267061	0.05
0	1860	91.069634267061	0.05
0	1862	91.169634267061	0.05
0	1864	91.269634267061	0.05
0	1866	91.369634267061	0.05
0	1866	91.387276405	0.05
0	1868	91.469634267061	0.05
0	1870	91.569634267061	0.0495
0	1870	91.569634267061	0.0495
0	1872	91.669634267061	0.0499
0	1874	91.769634267061	0.05
0	1875	91.853086456	0.05
0	1876	91.869634267061	0.05
0	1878	91.969634267061	0.05
0	1880	92.069634267061	0.05
0	1882	92.169634267061	0.05
0	1884	92.269634267061	0.05
0	1886	92.369634267061	0.05
0	1887	92.411960482	0.05
0	1888	92.469634267061	0.05
0	1890	92.569634267061	0.05
0	1892	92.669634267061	0.05
0	1894	92.769634267061	0.05
0	1896	92.869634267061	0.05
0	1898	92.969634267061	0.05
0	1900	93.069634267061	0.0495
0	1900	93.069634267061	0.0495
0	1901	93.158124805	0.049853962151756
0	1902	93.169634267061	0.0499
0	1904	93.269634267061	0.05
0	1906	93.369634267061	0.05
0	1908	93.469634267061	0.05
0	1910	93.569634267061	0.05
0	1912	93.669634267061	0.05
0	1914	93.769634267061	0.05
0	1915	93.856144645	0.05
0	1916	93.869634267061	0.05
0	1918	93.969634267061	0.05
0	1920	94.069634267061	0.05
0	1922	94.169634267061	0.05
0	1924	94.269634267061	0.05
0	1926	94.369634267061	0.05
0	1928	94.469634267061	0.05
0	1930	94.569634267061	0.0495
0	1930	94.569634267061	0.0495
0	1932	94.669634267061	0.0499
0	1934	94.769634267061	0.05
0	1935	94.800865657	0.05
0	1937	94.869634267061	0.05
0	1939	94.969634267061	0.05
0	1941	95.069634267061	0.05
0	1943	95.169634267061	0.05
0	1945	95.269634267061	0.05
0	1947	95.369634267061	0.05
0	1949	95.469634267061	0.05
0	1950	95.535235867	0.05
0	1951	95.569634267061	0.05
0	1953	95.669634267061	0.05
0	1955	95.769634267061	0.05
0	1957	95.869634267061	0.05
0	1959	95.969634267061	0.05
0	1960	96.037727647	0.05
0	1961	96.069634267061	0.05
0	1963	96.169634267061	0.05
0	1965	96.269634267061	0.05
0	1967	96.369634267061	0.05
0	1969	96.469634267061	0.05
0	1969	96.476998735	0.05
0	1971	96.569634267061	0.05
0	1973	96.669634267061	0.05
0	1975	96.769634267061	0.05
0	1977	96.869634267061	0.05
0	1978	96.958617301	0.05
0	1979	96.969634267061	0.05
0	1981	97.069634267061	0.05
0	1983	97.169634267061	0.05
0	1984	97.234048438	0.05
0	1985	97.269634267061	0.05
0	1987	97.369634267061	0.05
0	1989	97.469634267061	0.05
0	1991	97.569634267061	0.05
0	1993	97.669634267061	0.05
0	1994	97.741695307	0.05
0	1995	97.769634267061	0.05
0	1997	97.869634267061	0.05
0	1999	97.969634267061	0.05
0	2001	98.069634267061	0.05
0	2003	98.169634267061	0.05
0	2005	98.269634267061	0.05
0	2007	98.369634267061	0.05
0	2008	98.405151217	0.05
0	2009	98.469634267061	0.05
0	2011	98.569634267061	0.05
0	2013	98.669634267061	0.05
0	2015	98.769634267061	0.05
0	2017	98.869634267061	0.05
0	2018	98.958618367	0.05
0	2019	98.969634267061	0.05
0	2021	99.069634267061	0.05
0	2023	99.169634267061	0.05
0	2025	99.269634267061	0.05
0	2027	99.369634267061	0.05
0	2029	99.469634267061	0.05
0	2030	99.532476295	0.05
0	2031	99.569634267061	0.05
0	2033	99.669634267061	0.05
0	2035	99.769634267061	0.05
0	2037	99.869634267061	0.05
0	2039	99.969634267061	0.05
0	2041	100.069634267061	0.05
0	2042	100.111336381	0.05
0	2043	100.169634267061	0.05
0	2045	100.269634267061	0.05
0	2047	100.369634267061	0.05
0	2049	100.469634267061	0.05
0	2051	100.569634267061	0.05
0	2052	100.654238623	0.05
0	2053	100.669634267061	0.05
0	2055	100.769634267061	0.05
0	2057	100.869634267061	0.05
0	2059	100.969634267061	0.05
0	2061	101.069634267061	0.05
0	2063	101.169634267061	0.05
0	2064	101.240621905	0.05
0	2065	101.269634267061	0.05
0	2067	101.369634267061	0.05
0	2069	101.469634267061	0.05
0	2071	101.569634267061	0.05
0	2072	101.662287727	0.0495
0	2072	101.662287727	0.0495
0	2073	101.669634267061	0.049529386160244
0	2075	101.769634267061	0.049929386160244
0	2077	101.869634267061	0.05
0	2079	101.969634267061	0.05
0	2081	102.069634267061	0.05
0	2083	102.169634267061	0.05
0	2083	102.186519031	0.05
0	2085	102.269634267061	0.05
0	2087	102.369634267061	0.05
0	2089	102.469634267061	0.05
0	2091	102.569634267061	0.05
0	2093	102.669634267061	0.05
0	2094	102.700620913	0.05
0	2095	102.769634267061	0.05
0	2097	102.869634267061	0.05
0	2099	102.969634267061	0.05
0	2101	103.069634267061	0.05
0	2103	103.169634267061	0.05
0	2105	103.269634267061	0.05
0	2106	103.329165247	0.05
0	2107	103.369634267061	0.05
0	2109	103.469634267061	0.05
0	2111	103.569634267061	0.05
0	2113	103.669634267061	0.05
0	2115	103.769634267061	0.05
0	2117	103.869634267061	0.05
0	2118	103.9019782	0.05
0	2119	103.969634267061	0.05
0	2121	104.069634267061	0.05
0	2123	104.169634267061	0.05
0	2125	104.269634267061	0.05
0	2126	104.334838096	0.05
0	2127	104.369634267061	0.05
0	2129	104.469634267061	0.05
0	2131	104.569634267061	0.05
0	2133	104.669634267061	0.05
0	2135	104.769634267061	0.05
0	2137	104.869634267061	0.05
0	2138	104.912623882	0.05
0	2139	104.969634267061	0.05
0	2141	105.069634267061	0.05
0	2143	105.169634267061	0.05
0	2145	105.269634267061	0.05
0	2147	105.369634267061	0.05
0	2148	105.436397626	0.05
0	2149	105.469634267061	0.05
0	2151	105.569634267061	0.05
0	2153	105.669634267061	0.05
0	2155	105.769634267061	0.05
0	2157	105.869634267061	0.05
0	2158	105.968328169	0.0495
0	2158	105.968328169	0.0495
0	2159	105.969634267061	0.049505224392244
0	2161	106.069634267061	0.049905224392244
0	2163	106.169634267061	0.05
0	2165	106.269634267061	0.05
0	2167	106.369634267061	0.05
0	2167	106.371435202	0.05
0	2169	106.469634267061	0.05
0	2171	106.569634267061	0.05
0	2173	106.669634267061	0.05
0	2175	106.769634267061	0.05
0	2176	106.815097789	0.05
0	2177	106.869634267061	0.05
0	2179	106.969634267061	0.05
0	2181	107.069634267061	0.05
0	2182	107.110836946	0.05
0	2183	107.169634267061	0.05
0	2185	107.269634267061	0.05
0	2187	107.369634267061	0.05
0	2189	107.469634267061	0.05
0	2191	107.569634267061	0.05
0	2191	107.577521254	0.05
0	2193	107.669634267061	0.05
0	2195	107.769634267061	0.05
0	2196	107.85399583	0.05
0	2197	107.869634267061	0.05
0	2199	107.969634267061	0.05
0	2201	108.069634267061	0.05
0	2203	108.169634267061	0.05
0	2205	108.269634267061	0.05
0	2206	108.341476873	0.05
0	2207	108.369634267061	0.05
0	2209	108.469634267061	0.05
0	2211	108.569634267061	0.05
0	2213	108.669634267061	0.05
0	2215	108.769634267061	0.05
0	2216	108.861054883	0.05
0	2217	108.869634267061	0.05
0	2219	108.969634267061	0.05
0	2221	109.069634267061	0.05
0	2222	109.1398861	0.05
0	2223	109.169634267061	0.05
0	2225	109.269634267061	0.05
0	2227	109.369634267061	0.05
0	2228	109.437953839	0.05
0	2229	109.469634267061	0.05
0	2231	109.569634267061	0.05
0	2233	109.669634267061	0.05
0	2235	109.769634267061	0.05
0	2236	109.867844299	0.05
0	2237	109.869634267061	0.05
0	2239	109.969634267061	0.05
0	2241	110.069634267061	0.05
0	2243	110.169634267061	0.05
0	2245	110.269634267061	0.05
0	2245	110.273977927	0.05
0	2247	110.369634267061	0.05
0	2249	110.469634267061	0.05
0	2251	110.569634267061	0.05
0	2253	110.669634267061	0.05
0	2254	110.708287495	0.05
0	2255	110.769634267061	0.05
0	2257	110.869634267061	0.05
0	2259	110.969634267061	0.05
0	2261	111.069634267061	0.05
0	2262	111.140974714	0.05
0	2263	111.169634267061	0.05
0	2265	111.269634267061	0.05
0	2267	111.369634267061	0.05
0	2269	111.469634267061	0.05
0	2271	111.569634267061	0.05
0	2272	111.59976616	0.05
0	2273	111.669634267061	0.05
0	2275	111.769634267061	0.05
0	2277	111.869634267061	0.05
0	2279	111.969634267061	0.05
0	2281	112.069634267061	0.05
0	2281	112.076531932	0.05
0	2283	112.169634267061	0.05
0	2285	112.269634267061	0.05
0	2287	112.369634267061	0.05
0	2289	112.469634267061	0.05
0	2291	112.569634267061	0.05
0	2292	112.622033368	0.05
0	2293	112.669634267061	0.05
0	2295	112.769634267061	0.05
0	2297	112.869634267061	0.05
0	2299	112.969634267061	0.05
0	2301	113.069634267061	0.05
0	2303	113.169634267061	0.05
0	2304	113.213515918	0.05
0	2305	113.269634267061	0.05
0	2307	113.369634267061	0.05
0	2309	113.469634267061	0.05
0	2311	113.569634267061	0.05
0	2312	113.632856476	0.05
0	2313	113.669634267061	0.05
0	2315	113.769634267061	0.05
0	2317	113.869634267061	0.05
0	2319	113.969634267061	0.05
0	2320	114.06103708	0.05
0	2321	114.069634267061	0.05
0	2323	114.169634267061	0.05
0	2325	114.269634267061	0.05
0	2327	114.369634267061	0.05
0	2329	114.469634267061	0.05
0	2330	114.505123789	0.05
0	2331	114.569634267061	0.05
0	2333	114.669634267061	0.05
0	2335	114.769634267061	0.05
0	2337	114.869634267061	0.05
0	2338	114.92500228	0.05
0	2339	114.969634267061	0.05
0	2341	115.069634267061	0.05
0	2343	115.169634267061	0.05
0	2345	115.269634267061	0.05
0	2347	115.369634267061	0.05
0	2348	115.45888201	0.05
0	2349	115.469634267061	0.05
0	2351	115.569634267061	0.05
0	2353	115.669634267061	0.05
0	2355	115.769634267061	0.05
0	2357	115.869634267061	0.05
0	2358	115.95365962	0.05
0	2359	115.969634267061	0.05
0	2361	116.069634267061	0.05
0	2363	116.169634267061	0.05
0	2365	116.269634267061	0.05
0	2367	116.369634267061	0.05
0	2367	116.38435393	0.05
0	2369	116.469634267061	0.05
0	2371	116.569634267061	0.05
0	2373	116.669634267061	0.05
0	2375	116.769634267061	0.05
0	2376	116.830971952	0.05
0	2377	116.869634267061	0.05
0	2379	116.969634267061	0.05
0	2381	117.069634267061	0.05
0	2383	117.169634267061	0.05
0	2385	117.269634267061	0.05
0	2386	117.36788824	0.05
0	2387	117.369634267061	0.05
0	2389	117.469634267061	0.05
0	2391	117.569634267061	0.05
0	2393	117.669634267061	0.05
0	2395	117.769634267061	0.05
0	2397	117.869634267061	0.05
0	2398	117.926346922	0.05
0	2399	117.969634267061	0.05
0	2401	118.069634267061	0.05
0	2403	118.169634267061	0.05
0	2405	118.269634267061	0.05
0	2407	118.369634267061	0.05
0	2407	118.373700184	0.05
0	2409	118.469634267061	0.05
0	2411	118.569634267061	0.05
0	2413	118.669634267061	0.05
0	2415	118.769634267061	0.05
0	2416	118.862517532	0.05
0	2417	118.869634267061	0.05
0	2419	118.969634267061	0.05
0	2421	119.069634267061	0.05
0	2423	119.169634267061	0.05
0	2425	119.269634267061	0.05
0	2427	119.369634267061	0.05
0	2428	119.444222656	0.05
0	2429	119.469634267061	0.05
0	2431	119.569634267061	0.05
0	2433	119.669634267061	0.05
0	2434	119.704557772	0.05
0	2435	119.769634267061	0.05
0	2437	119.869634267061	0.05
0	2439	119.969634267061	0.05
0	2441	120.069634267061	0.05
0	2442	120.165280348	0.05
0	2443	120.169634267061	0.05
0	2445	120.269634267061	0.05
0	2447	120.369634267061	0.05
0	2449	120.469634267061	0.05
0	2451	120.569634267061	0.05
0	2452	120.621427108	0.05
0	2453	120.669634267061	0.05
0	2455	120.769634267061	0.05
0	2457	120.869634267061	0.05
0	2459	120.969634267061	0.05
0	2461	121.069634267061	0.05
0	2461	121.083490726	0.05
0	2463	121.169634267061	0.05
0	2465	121.269634267061	0.05
0	2467	121.369634267061	0.05
0	2469	121.469634267061	0.05
0	2471	121.569634267061	0.05
0	2473	121.669634267061	0.05
0	2475	121.769634267061	0.05
0	2475	121.790643457	0.05
0	2477	121.869634267061	0.05
0	2479	121.969634267061	0.05
0	2481	122.069634267061	0.05
0	2483	122.169634267061	0.05
0	2485	122.269634267061	0.05
0	2486	122.306669587	0.05
0	2487	122.369634267061	0.05
0	2489	122.469634267061	0.05
0	2491	122.569634267061	0.05
0	2493	122.669634267061	0.05
0	2495	122.769634267061	0.05
0	2496	122.846910619	0.05
0	2497	122.869634267061	0.05
0	2499	122.969634267061	0.05
0	2501	123.069634267061	0.05
0	2501	123.081533206	0.05
0	2503	123.169634267061	0.05
0	2505	123.269634267061	0.05
0	2507	123.369634267061	0.05
0	2509	123.469634267061	0.05
0	2511	123.569634267061	0.05
0	2511	123.573572707	0.05
0	2513	123.669634267061	0.05
0	2515	123.769634267061	0.05
0	2516	123.852700267	0.05
0	2517	123.869634267061	0.05
0	2519	123.969634267061	0.05
0	2521	124.069634267061	0.05
0	2523	124.169634267061	0.05
0	2525	124.269634267061	0.05
0	2527	124.369634267061	0.05
0	2528	124.39452064	0.05
0	2529	124.469634267061	0.05
0	2531	124.569634267061	0.05
0	2533	124.669634267061	0.05
0	2533	124.692010474	0.05
0	2535	124.769634267061	0.05
0	2537	124.869634267061	0.05
0	2539	124.969634267061	0.05
0	2541	125.069634267061	0.05
0	2543	125.169634267061	0.05
0	2544	125.233680949	0.05
0	2545	125.269634267061	0.05
0	2547	125.369634267061	0.05
0	2549	125.469634267061	0.05
0	2550	125.533237672	0.05
0	2551	125.569634267061	0.05
0	2553	125.669634267061	0.05
0	2555	125.769634267061	0.05
0	2557	125.869634267061	0.05
0	2558	125.931441067	0.05
0	2559	125.969634267061	0.05
0	2561	126.069634267061	0.05
0	2563	126.169634267061	0.05
0	2564	126.226668346	0.05
0	2565	126.269634267061	0.05
0	2567	126.369634267061	0.05
0	2569	126.469634267061	0.05
0	2571	126.569634267061	0.05
0	2573	126.669634267061	0.05
0	2574	126.721566148	0.0495
0	2574	126.721566148	0.0495
0	2575	126.769634267061	0.049692272476244
0	2577	126.869634267061	0.05
0	2579	126.969634267061	0.05
0	2579	126.993726724	0.05
0	2581	127.069634267061	0.05
0	2583	127.169634267061	0.05
0	2585	127.269634267061	0.05
0	2587	127.369634267061	0.05
0	2589	127.469634267061	0.05
0	2590	127.524487198	0.05
0	2591	127.569634267061	0.05
0	2593	127.669634267061	0.05
0	2595	127.769634267061	0.05
0	2597	127.869634267061	0.05
0	2599	127.969634267061	0.05
0	2601	128.069634267061	0.05
0	2601	128.077244599	0.05
0	2603	128.169634267061	0.05
0	2605	128.269634267061	0.05
0	2607	128.369634267061	0.05
0	2609	128.469634267061	0.05
0	2610	128.552514511	0.05
0	2611	128.569634267061	0.05
0	2613	128.669634267061	0.05
0	2615	128.769634267061	0.05
0	2617	128.869634267061	0.05
0	2619	128.969634267061	0.05
0	2620	129.024054592	0.05
0	2621	129.069634267061	0.05
0	2623	129.169634267061	0.05
0	2625	129.269634267061	0.05
0	2627	129.369634267061	0.05
0	2629	129.469634267061	0.05
0	2631	129.569634267061	0.05
0	2632	129.606774691	0.05
0	2633	129.669634267061	0.05
0	2635	129.769634267061	0.05
0	2637	129.869634267061	0.05
0	2639	129.969634267061	0.05
0	2640	130.06295956	0.05
0	2641	130.069634267061	0.05
0	2643	130.169634267061	0.05
0	2645	130.269634267061	0.05
0	2646	130.281123155876	0.05
0	2648	130.381123155876	0.05
0	2650	130.481123155876	0.05
0	2652	130.581123155876	0.05
0	2653	130.645258495	0.05
0	2654	130.681123155876	0.05
0	2656	130.781123155876	0.05
0	2658	130.881123155876	0.05
0	2660	130.981123155876	0.0495
0	2660	130.981123155876	0.0495
0	2662	131.081123155876	0.0499
0	2663	131.098256608	0.049968533808496
0	2664	131.181123155876	0.05
0	2666	131.281123155876	0.05
0	2668	131.381123155876	0.05
0	2670	131.481123155876	0.05
0	2671	131.54202157	0.05
0	2672	131.581123155876	0.05
0	2674	131.681123155876	0.05
0	2676	131.781123155876	0.05
0	2678	131.881123155876	0.05
0	2680	131.981123155876	0.05
0	2681	132.060777127	0.05
0	2682	132.081123155876	0.05
0	2684	132.181123155876	0.05
0	2686	132.281123155876	0.05
0	2688	132.381123155876	0.0495
0	2688	132.381123155876	0.0495
0	2690	132.481123155876	0.0499
0	2692	132.581123155876	0.05
0	2693	132.638485234	0.05
0	2694	132.681123155876	0.05
0	2696	132.781123155876	0.05
0	2698	132.881123155876	0.05
0	2700	132.981123155876	0.05
0	2702	133.081123155876	0.05
0	2703	133.124349457	0.05
0	2704	133.181123155876	0.05
0	2706	133.281123155876	0.05
0	2707	133.375796068	0.05
0	2708	133.381123155876	0.05
0	2710	133.481123155876	0.05
0	2712	133.581123155876	0.05
0	2714	133.681123155876	0.05
0	2716	133.781123155876	0.0495
0	2716	133.781123155876	0.0495
0	2716	133.789334281	0.049532844500496
0	2718	133.881123155876	0.0499
0	2720	133.981123155876	0.05
0	2722	134.081123155876	0.05
0	2724	134.181123155876	0.05
0	2725	134.204845369	0.05
0	2726	134.281123155876	0.05
0	2728	134.381123155876	0.05
0	2730	134.481123155876	0.05
0	2732	134.581123155876	0.05
0	2733	134.676111289	0.05
0	2734	134.681123155876	0.05
0	2736	134.781123155876	0.05
0	2738	134.881123155876	0.05
0	2739	134.968058236	0.05
0	2740	134.981123155876	0.05
0	2742	135.081123155876	0.0495
0	2742	135.081123155876	0.0495
0	2744	135.181123155876	0.0499
0	2746	135.281123155876	0.05
0	2748	135.381123155876	0.05
0	2750	135.481123155876	0.05
0	2752	135.581123155876	0.05
0	2753	135.657231256	0.05
0	2754	135.681123155876	0.05
0	2756	135.781123155876	0.05
0	2758	135.881123155876	0.05
0	2760	135.981123155876	0.05
0	2762	136.081123155876	0.05
0	2764	136.181123155876	0.05
0	2765	136.271560285	0.05
0	2766	136.281123155876	0.05
0	2768	136.381123155876	0.05
0	2770	136.481123155876	0.05
0	2772	136.581123155876	0.0495
0	2772	136.581123155876	0.0495
0	2774	136.681123155876	0.0499
0	2775	136.747502896	0.05
0	2776	136.781123155876	0.05
0	2778	136.881123155876	0.05
0	2780	136.981123155876	0.05
0	2782	137.081123155876	0.05
0	2784	137.181123155876	0.05
0	2786	137.268203647	0.05
0	2787	137.281123155876	0.05
0	2789	137.381123155876	0.05
0	2792	137.481123155876	0.05
0	2794	137.581123155876	0.05
0	2796	137.681123155876	0.05
0	2797	137.728061464	0.05
0	2798	137.781123155876	0.05
0	2800	137.881123155876	0.0495
0	2800	137.881123155876	0.0495
0	2802	137.981123155876	0.0499
0	2804	138.081123155876	0.05
0	2806	138.181123155876	0.05
0	2806	138.182906566	0.05
0	2808	138.281123155876	0.05
0	2810	138.381123155876	0.05
0	2811	138.450985828	0.05
0	2812	138.481123155876	0.05
0	2814	138.581123155876	0.05
0	2816	138.681123155876	0.05
0	2818	138.781123155876	0.05
0	2820	138.881123155876	0.05
0	2821	138.925549954	0.05
0	2822	138.981123155876	0.05
0	2824	139.081123155876	0.05
0	2826	139.181123155876	0.05
0	2828	139.281123155876	0.0495
0	2828	139.281123155876	0.0495
0	2830	139.381123155876	0.0499
0	2831	139.397200618	0.049964309848496
0	2832	139.481123155876	0.05
0	2834	139.581123155876	0.05
0	2835	139.661474023	0.05
0	2836	139.681123155876	0.05
0	2838	139.781123155876	0.05
0	2840	139.881123155876	0.05
0	2842	139.981123155876	0.05
0	2844	140.081123155876	0.05
0	2844	140.088858133	0.05
0	2846	140.181123155876	0.05
0	2848	140.281123155876	0.05
0	2850	140.381123155876	0.05
0	2852	140.481123155876	0.05
0	2854	140.581123155876	0.05
0	2854	140.593117918	0.0495
0	2854	140.593117918	0.0495
0	2856	140.681123155876	0.049852020951504
0	2858	140.781123155876	0.05
0	2860	140.881123155876	0.05
0	2862	140.981123155876	0.05
0	2863	141.021156487	0.05
0	2864	141.081123155876	0.05
0	2866	141.181123155876	0.05
0	2868	141.281123155876	0.05
0	2870	141.381123155876	0.05
0	2872	141.481123155876	0.05
0	2873	141.566473786	0.05
0	2874	141.581123155876	0.05
0	2876	141.681123155876	0.05
0	2878	141.781123155876	0.05
0	2880	141.881123155876	0.05
0	2882	141.981123155876	0.05
0	2883	142.035926194	0.05
0	2884	142.081123155876	0.05
0	2886	142.181123155876	0.05
0	2888	142.281123155876	0.05
0	2890	142.381123155876	0.05
0	2892	142.481123155876	0.05
0	2893	142.569344764	0.05
0	2894	142.581123155876	0.05
0	2896	142.681123155876	0.05
0	2898	142.781123155876	0.05
0	2900	142.881123155876	0.05
0	2901	142.94947942	0.05
0	2902	142.981123155876	0.05
0	2904	143.081123155876	0.05
0	2906	143.181123155876	0.05
0	2907	143.220204991	0.05
0	2908	143.281123155876	0.05
0	2910	143.381123155876	0.0495
0	2910	143.381123155876	0.0495
0	2912	143.481123155876	0.0499
0	2914	143.581123155876	0.05
0	2916	143.681123155876	0.05
0	2917	143.716719892	0.05
0	2918	143.781123155876	0.05
0	2920	143.881123155876	0.05
0	2922	143.981123155876	0.05
0	2924	144.081123155876	0.05
0	2926	144.181123155876	0.05
0	2928	144.281123155876	0.05
0	2930	144.381123155876	0.05
0	2930	144.38230756	0.05
0	2932	144.481123155876	0.05
0	2934	144.581123155876	0.05
0	2936	144.681123155876	0.05
0	2937	144.773903662	0.05
0	2938	144.781123155876	0.0495
0	2938	144.781123155876	0.0495
0	2940	144.881123155876	0.0499
0	2942	144.981123155876	0.05
0	2944	145.081123155876	0.05
0	2946	145.181123155876	0.05
0	2947	145.271233228	0.05
0	2948	145.281123155876	0.05
0	2950	145.381123155876	0.05
0	2952	145.481123155876	0.05
0	2954	145.581123155876	0.05
0	2956	145.681123155876	0.05
0	2958	145.781123155876	0.05
0	2958	145.786269079	0.05
0	2960	145.881123155876	0.05
0	2962	145.981123155876	0.05
0	2964	146.081123155876	0.05
0	2966	146.181123155876	0.05
0	2968	146.281123155876	0.0495
0	2968	146.281123155876	0.0495
0	2970	146.381123155876	0.0499
0	2972	146.481123155876	0.05
0	2973	146.506427317	0.05
0	2974	146.581123155876	0.05
0	2976	146.681123155876	0.05
0	2978	146.781123155876	0.05
0	2980	146.881123155876	0.05
0	2982	146.981123155876	0.05
0	2983	147.07494553	0.05
0	2984	147.081123155876	0.05
0	2986	147.181123155876	0.05
0	2988	147.281123155876	0.05
0	2990	147.381123155876	0.05
0	2992	147.481123155876	0.05
0	2994	147.581123155876	0.05
0	2996	147.681123155876	0.05
0	2998	147.781123155876	0.0495
0	2998	147.781123155876	0.0495
0	2999	147.80119498	0.049580287296496
0	3000	147.881123155876	0.0499
0	3002	147.981123155876	0.05
0	3004	148.081123155876	0.05
0	3006	148.181123155876	0.05
0	3008	148.281123155876	0.05
0	3009	148.368690514	0.05
0	3010	148.381123155876	0.05
0	3012	148.481123155876	0.05
0	3014	148.581123155876	0.05
0	3016	148.681123155876	0.05
0	3018	148.781123155876	0.05
0	3020	148.881123155876	0.05
0	3020	148.888363084	0.05
0	3022	148.981123155876	0.05
0	3024	149.081123155876	0.05
0	3026	149.181123155876	0.0495
0	3026	149.181123155876	0.0495
0	3028	149.281123155876	0.0499
0	3030	149.381123155876	0.05
0	3031	149.431048342	0.05
0	3032	149.481123155876	0.05
0	3034	149.581123155876	0.05
0	3036	149.681123155876	0.05
0	3038	149.781123155876	0.05
0	3040	149.881123155876	0.05
0	3042	149.981123155876	0.05
0	3043	150.056950471	0.05
0	3044	150.081123155876	0.05
0	3046	150.181123155876	0.05
0	3048	150.281123155876	0.05
0	3050	150.381123155876	0.05
0	3052	150.481123155876	0.05
0	3053	150.507413992	0.05
0	3054	150.581123155876	0.0495
0	3054	150.581123155876	0.0495
0	3056	150.681123155876	0.0499
0	3058	150.781123155876	0.05
0	3060	150.881123155876	0.05
0	3062	150.981123155876	0.05
0	3062	150.988862947	0.05
0	3064	151.081123155876	0.05
0	3066	151.181123155876	0.05
0	3068	151.281123155876	0.05
0	3070	151.381123155876	0.05
0	3071	151.427687263	0.05
0	3072	151.481123155876	0.05
0	3074	151.581123155876	0.05
0	3076	151.681123155876	0.05
0	3078	151.781123155876	0.05
0	3080	151.881123155876	0.05
0	3081	151.918106995	0.05
0	3082	151.981123155876	0.0495
0	3082	151.981123155876	0.0495
0	3084	152.081123155876	0.0499
0	3086	152.181123155876	0.05
0	3088	152.281123155876	0.05
0	3089	152.348810323	0.05
0	3090	152.381123155876	0.05
0	3092	152.481123155876	0.05
0	3094	152.581123155876	0.05
0	3096	152.681123155876	0.05
0	3098	152.781123155876	0.05
0	3099	152.870440576	0.05
0	3100	152.881123155876	0.05
0	3102	152.981123155876	0.05
0	3104	153.081123155876	0.05
0	3105	153.155003818	0.05
0	3106	153.181123155876	0.05
0	3108	153.281123155876	0.05
0	3110	153.381123155876	0.0495
0	3110	153.381123155876	0.0495
0	3111	153.407404084	0.049605123712496
0	3112	153.481123155876	0.0499
0	3114	153.581123155876	0.05
0	3116	153.681123155876	0.05
0	3117	153.700775644	0.05
0	3118	153.781123155876	0.05
0	3120	153.881123155876	0.05
0	3122	153.952235618018	0.05
0	3123	153.981123155876	0.05
0	3125	154.081123155876	0.05
0	3127	154.181123155876	0.05
0	3128	154.229948677	0.05
0	3129	154.281123155876	0.05
0	3131	154.381123155876	0.05
0	3133	154.481123155876	0.05
0	3134	154.5437191	0.05
0	3135	154.581123155876	0.05
0	3137	154.681123155876	0.05
0	3139	154.781123155876	0.05
0	3141	154.881123155876	0.05
0	3143	154.981123155876	0.05
0	3144	155.029952026	0.05
0	3145	155.081123155876	0.05
0	3147	155.181123155876	0.05
0	3149	155.281123155876	0.05
0	3151	155.381123155876	0.05
0	3152	155.456229712	0.05
0	3153	155.481123155876	0.05
0	3155	155.581123155876	0.05
0	3157	155.681123155876	0.05
0	3159	155.781123155876	0.05
0	3161	155.881123155876	0.05
0	3163	155.981123155876	0.05
0	3164	156.054002653	0.0495
0	3164	156.054002653	0.0495
0	3165	156.081123155876	0.0495
0	3167	156.181123155876	0.0495
0	3169	156.281123155876	0.0495
0	3171	156.381123155876	0.0495
0	3173	156.481123155876	0.0495
0	3175	156.581123155876	0.0495
0	3176	156.635933713	0.0495
0	3178	156.681123155876	0.0495
0	3180	156.781123155876	0.0495
0	3182	156.881123155876	0.0495
0	3184	156.981123155876	0.0495
0	3186	157.081123155876	0.0495
0	3188	157.181123155876	0.0495
0	3190	157.281123155876	0.0495
0	3192	157.381123155876	0.0495
0	3192	157.413900298	0.0495
0	3194	157.481123155876	0.049005
0	3194	157.481123155876	0.049005
0	3196	157.581123155876	0.049005
0	3198	157.681123155876	0.049005
0	3200	157.781123155876	0.049005
0	3202	157.881123155876	0.049005
0	3202	157.915592743	0.049005
0	3204	157.981123155876	0.049005
0	3206	158.081123155876	0.049005
0	3208	158.181123155876	0.049005
0	3210	158.281123155876	0.049005
0	3212	158.381123155876	0.049005
0	3212	158.381637919	0.049005
0	3214	158.481123155876	0.049005
0	3216	158.581123155876	0.049005
0	3218	158.681123155876	0.049005
0	3220	158.781123155876	0.049005
0	3221	158.87389198	0.049005
0	3222	158.881123155876	0.04851495
0	3222	158.881123155876	0.04851495
0	3224	158.981123155876	0.04851495
0	3226	159.081123155876	0.04851495
0	3228	159.181123155876	0.04851495
0	3230	159.281123155876	0.04851495
0	3230	159.362402062	0.04851495
0	3232	159.381123155876	0.04851495
0	3234	159.481123155876	0.04851495
0	3236	159.581123155876	0.04851495
0	3238	159.681123155876	0.04851495
0	3240	159.781123155876	0.04851495
0	3242	159.881123155876	0.04851495
0	3242	159.886976716	0.04851495
0	3244	159.981123155876	0.04851495
0	3246	160.081123155876	0.04851495
0	3248	160.181123155876	0.04851495
0	3250	160.281123155876	0.04851495
0	3252	160.381123155876	0.0480298005
0	3252	160.381123155876	0.0480298005
0	3252	160.445434852	0.0480298005
0	3254	160.481123155876	0.0480298005
0	3256	160.581123155876	0.0480298005
0	3258	160.681123155876	0.0480298005
0	3260	160.781123155876	0.0480298005
0	3262	160.881123155876	0.0480298005
0	3264	160.981123155876	0.0480298005
0	3264	161.042597608	0.0480298005
0	3266	161.081123155876	0.0480298005
0	3268	161.181123155876	0.0480298005
0	3270	161.281123155876	0.0480298005
0	3270	161.308070938	0.0480298005
0	3272	161.381123155876	0.0480298005
0	3274	161.481123155876	0.0480298005
0	3276	161.581123155876	0.0480298005
0	3278	161.681123155876	0.0480298005
0	3280	161.781123155876	0.047549502495
0	3280	161.781123155876	0.047549502495
0	3280	161.83502188	0.047549502495
0	3282	161.881123155876	0.047549502495
0	3284	161.981123155876	0.047549502495
0	3286	162.081123155876	0.047549502495
0	3288	162.181123155876	0.047549502495
0	3288	162.256712221	0.047549502495
0	3290	162.281123155876	0.047549502495
0	3292	162.381123155876	0.047549502495
0	3294	162.481123155876	0.047549502495
0	3294	162.507502231	0.047549502495
0	3296	162.581123155876	0.047549502495
0	3298	162.681123155876	0.047549502495
0	3300	162.781123155876	0.047549502495
0	3300	162.795562522	0.047549502495
0	3302	162.881123155876	0.047549502495
0	3304	162.981123155876	0.047549502495
0	3304	163.047213691	0.04707400747005
0	3304	163.047213691	0.04707400747005
0	3306	163.081123155876	0.04707400747005
0	3308	163.181123155876	0.04707400747005
0	3310	163.281123155876	0.04707400747005
0	3312	163.381123155876	0.04707400747005
0	3313	163.473896197	0.04707400747005
0	3314	163.481123155876	0.04707400747005
0	3316	163.581123155876	0.04707400747005
0	3318	163.681123155876	0.04707400747005
0	3320	163.781123155876	0.04707400747005
0	3322	163.881123155876	0.04707400747005
0	3324	163.981123155876	0.04707400747005
0	3324	164.063436319	0.04707400747005
0	3326	164.081123155876	0.04707400747005
0	3328	164.181123155876	0.04707400747005
0	3330	164.281123155876	0.04707400747005
0	3332	164.381123155876	0.04707400747005
0	3334	164.481123155876	0.04660326739535
0	3334	164.481123155876	0.04660326739535
0	3336	164.581123155876	0.04660326739535
0	3336	164.630909851	0.04660326739535
0	3338	164.681123155876	0.04660326739535
0	3340	164.781123155876	0.04660326739535
0	3342	164.881123155876	0.04660326739535
0	3342	164.907782407	0.04660326739535
0	3344	164.981123155876	0.04660326739535
0	3346	165.081123155876	0.04660326739535
0	3348	165.181123155876	0.04660326739535
0	3350	165.281123155876	0.04660326739535
0	3352	165.381123155876	0.04660326739535
0	3352	165.386576767	0.04660326739535
0	3354	165.481123155876	0.04660326739535
0	3356	165.581123155876	0.04660326739535
0	3358	165.681123155876	0.04660326739535
0	3360	165.781123155876	0.04660326739535
0	3362	165.881123155876	0.046137234721396
0	3362	165.881123155876	0.046137234721396
0	3362	165.892303117	0.046137234721396
0	3364	165.981123155876	0.046137234721396
0	3366	166.081123155876	0.046137234721396
0	3368	166.181123155876	0.046137234721396
0	3370	166.281123155876	0.046137234721396
0	3372	166.381123155876	0.046137234721396
0	3374	166.481123155876	0.046137234721396
0	3374	166.49446435	0.046137234721396
0	3376	166.581123155876	0.046137234721396
0	3378	166.681123155876	0.046137234721396
0	3380	166.781123155876	0.046137234721396
0	3382	166.881123155876	0.046137234721396
0	3384	166.981123155876	0.046137234721396
0	3386	167.081123155876	0.046137234721396
0	3386	167.157007051	0.046137234721396
0	3388	167.181123155876	0.046137234721396
0	3390	167.281123155876	0.045675862374182
0	3390	167.281123155876	0.045675862374182
0	3392	167.381123155876	0.045675862374182
0	3394	167.481123155876	0.045675862374182
0	3396	167.581123155876	0.045675862374182
0	3398	167.681123155876	0.045675862374182
0	3400	167.781123155876	0.045675862374182
0	3400	167.82384292	0.045675862374182
0	3402	167.881123155876	0.045675862374182
0	3404	167.981123155876	0.045675862374182
0	3406	168.081123155876	0.045675862374182
0	3408	168.181123155876	0.045675862374182
0	3410	168.281123155876	0.045675862374182
0	3412	168.381123155876	0.045675862374182
0	3412	168.416782753	0.045675862374182
0	3413	168.453288958086	0.045675862374182
0	3415	168.553288958086	0.045675862374182
0	3417	168.653288958086	0.045675862374182
0	3418	168.716986165	0.04521910375044
0	3418	168.716986165	0.04521910375044
0	3419	168.753288958086	0.04521910375044
0	3421	168.853288958086	0.04521910375044
0	3423	168.953288958086	0.04521910375044
0	3425	169.053288958086	0.04521910375044
0	3427	169.153288958086	0.04521910375044
0	3427	169.160642704	0.04521910375044
0	3429	169.253288958086	0.04521910375044
0	3431	169.353288958086	0.04521910375044
0	3433	169.453288958086	0.04521910375044
0	3435	169.553288958086	0.04521910375044
0	3436	169.584299059	0.04521910375044
0	3437	169.653288958086	0.04521910375044
0	3439	169.753288958086	0.04521910375044
0	3441	169.853288958086	0.04521910375044
0	3443	169.953288958086	0.04521910375044
0	3444	169.983690694	0.04521910375044
0	3445	170.053288958086	0.04521910375044
0	3447	170.153288958086	0.04521910375044
0	3449	170.253288958086	0.04521910375044
0	3450	170.278437655	0.04521910375044
0	3451	170.353288958086	0.04521910375044
0	3453	170.453288958086	0.04521910375044
0	3455	170.553288958086	0.04521910375044
0	3457	170.653288958086	0.04521910375044
0	3459	170.753288958086	0.04521910375044
0	3460	170.772773401	0.04521910375044
0	3461	170.853288958086	0.04521910375044
0	3463	170.953288958086	0.04521910375044
0	3465	171.053288958086	0.04521910375044
0	3467	171.153288958086	0.04521910375044
0	3468	171.236443321	0.04521910375044
0	3469	171.253288958086	0.04521910375044
0	3471	171.353288958086	0.04521910375044
0	3473	171.453288958086	0.04521910375044
0	3474	171.531438016	0.04521910375044
0	3475	171.553288958086	0.04521910375044
0	3477	171.653288958086	0.04521910375044
0	3479	171.753288958086	0.04521910375044
0	3481	171.853288958086	0.04521910375044
0	3482	171.951515683	0.04521910375044
0	3483	171.953288958086	0.04521910375044
0	3485	172.053288958086	0.04521910375044
0	3487	172.153288958086	0.04521910375044
0	3489	172.253288958086	0.04521910375044
0	3491	172.353288958086	0.04521910375044
0	3492	172.417134799	0.04521910375044
0	3493	172.453288958086	0.04521910375044
0	3495	172.553288958086	0.04521910375044
0	3497	172.653288958086	0.04521910375044
0	3499	172.753288958086	0.04521910375044
0	3501	172.853288958086	0.04521910375044
0	3502	172.897453549	0.04521910375044
0	3503	172.953288958086	0.04521910375044
0	3505	173.053288958086	0.04521910375044
0	3507	173.153288958086	0.04521910375044
0	3509	173.253288958086	0.04521910375044
0	3511	173.353288958086	0.04521910375044
0	3512	173.448216229	0.04521910375044
0	3513	173.453288958086	0.04521910375044
0	3515	173.553288958086	0.04521910375044
0	3517	173.653288958086	0.04521910375044
0	3519	173.753288958086	0.04521910375044
0	3521	173.853288958086	0.04521910375044
0	3523	173.953288958086	0.04521910375044
0	3525	174.053288958086	0.04521910375044
0	3526	174.136335997	0.04521910375044
0	3527	174.153288958086	0.04521910375044
0	3529	174.253288958086	0.04521910375044
0	3531	174.353288958086	0.04521910375044
0	3533	174.453288958086	0.04521910375044
0	3535	174.553288958086	0.04521910375044
0	3537	174.653288958086	0.04521910375044
0	3537	174.663563968	0.04521910375044
0	3539	174.753288958086	0.04521910375044
0	3541	174.853288958086	0.04521910375044
0	3543	174.953288958086	0.04521910375044
0	3545	175.053288958086	0.04521910375044
0	3546	175.107072772	0.04521910375044
0	3547	175.153288958086	0.04521910375044
0	3549	175.253288958086	0.04521910375044
0	3551	175.353288958086	0.04521910375044
0	3553	175.453288958086	0.04521910375044
0	3555	175.553288958086	0.04521910375044
0	3556	175.586022031	0.04521910375044
0	3557	175.653288958086	0.04521910375044
0	3559	175.753288958086	0.04521910375044
0	3560	175.830763369	0.04521910375044
0	3561	175.853288958086	0.04521910375044
0	3563	175.953288958086	0.04521910375044
0	3565	176.053288958086	0.04521910375044
0	3567	176.153288958086	0.04521910375044
0	3569	176.173464605797	0.04521910375044
0	3571	176.273464605797	0.04521910375044
0	3573	176.373464605797	0.04521910375044
0	3573	176.379425713	0.04521910375044
0	3575	176.473464605797	0.04521910375044
0	3577	176.573464605797	0.04521910375044
0	3579	176.673464605797	0.04521910375044
0	3581	176.773464605797	0.04521910375044
0	3583	176.873464605797	0.04521910375044
0	3583	176.920871425	0.04521910375044
0	3585	176.973464605797	0.04521910375044
0	3587	177.073464605797	0.04521910375044
0	3589	177.173464605797	0.04521910375044
0	3591	177.273464605797	0.04521910375044
0	3593	177.373464605797	0.04521910375044
0	3595	177.473464605797	0.04521910375044
0	3597	177.573464605797	0.04521910375044
0	3597	177.58842661	0.04521910375044
0	3599	177.673464605797	0.04521910375044
0	3601	177.773464605797	0.04521910375044
0	3603	177.873464605797	0.04521910375044
0	3605	177.973464605797	0.04521910375044
0	3607	178.073464605797	0.04521910375044
0	3609	178.173464605797	0.04521910375044
0	3609	178.249385377	0.04521910375044
0	3611	178.273464605797	0.04521910375044
0	3613	178.373464605797	0.04521910375044
0	3615	178.473464605797	0.04521910375044
0	3617	178.573464605797	0.04521910375044
0	3619	178.673464605797	0.04521910375044
0	3621	178.773464605797	0.04521910375044
0	3621	178.830713539	0.04521910375044
0	3623	178.873464605797	0.04521910375044
0	3625	178.973464605797	0.04521910375044
0	3627	179.073464605797	0.04521910375044
0	3629	179.173464605797	0.04521910375044
0	3631	179.273464605797	0.04521910375044
0	3631	179.281239079	0.04521910375044
0	3633	179.373464605797	0.04521910375044
0	3635	179.473464605797	0.04521910375044
0	3637	179.573464605797	0.04521910375044
0	3639	179.673464605797	0.04521910375044
0	3639	179.723350531	0.04521910375044
0	3641	179.773464605797	0.04521910375044
0	3643	179.873464605797	0.04521910375044
0	3645	179.973464605797	0.04521910375044
0	3647	180.073464605797	0.04521910375044
0	3649	180.173464605797	0.04521910375044
0	3649	180.204656287	0.04521910375044
0	3651	180.273464605797	0.04521910375044
0	3653	180.373464605797	0.04521910375044
0	3653	180.461684887	0.04521910375044
0	3655	180.473464605797	0.04521910375044
0	3657	180.573464605797	0.04521910375044
0	3659	180.673464605797	0.04521910375044
0	3659	180.697565089	0.04521910375044
0	3661	180.773464605797	0.04521910375044
0	3663	180.873464605797	0.04521910375044
0	3665	180.973464605797	0.04521910375044
0	3665	180.988019614	0.04521910375044
0	3667	181.073464605797	0.04521910375044
0	3669	181.173464605797	0.04521910375044
0	3671	181.273464605797	0.04521910375044
0	3673	181.373464605797	0.04521910375044
0	3673	181.437941818	0.04521910375044
0	3675	181.473464605797	0.04521910375044
0	3677	181.573464605797	0.04521910375044
0	3679	181.673464605797	0.04521910375044
0	3681	181.773464605797	0.04521910375044
0	3683	181.873464605797	0.04521910375044
0	3685	181.973464605797	0.04521910375044
0	3685	182.008652473	0.04521910375044
0	3687	182.073464605797	0.04521910375044
0	3689	182.173464605797	0.04521910375044
0	3691	182.273464605797	0.04521910375044
0	3691	182.308487308	0.04521910375044
0	3693	182.373464605797	0.04521910375044
0	3695	182.473464605797	0.04521910375044
0	3697	182.573464605797	0.04521910375044
0	3699	182.673464605797	0.04521910375044
0	3699	182.754391405	0.04521910375044
0	3701	182.773464605797	0.04521910375044
0	3703	182.873464605797	0.04521910375044
0	3705	182.973464605797	0.04521910375044
0	3707	183.073464605797	0.04521910375044
0	3709	183.173464605797	0.04521910375044
0	3711	183.273464605797	0.04521910375044
0	3711	183.305252971	0.04521910375044
0	3713	183.373464605797	0.04521910375044
0	3715	183.473464605797	0.04521910375044
0	3717	183.573464605797	0.04521910375044
0	3719	183.673464605797	0.04521910375044
0	3721	183.773464605797	0.04521910375044
0	3723	183.873464605797	0.04521910375044
0	3724	183.897558466415	0.04521910375044
0	3724	183.908898964	0.04521910375044
0	3726	183.997558466415	0.044766912712936
0	3726	183.997558466415	0.044766912712936
0	3728	184.097558466415	0.044766912712936
0	3729	184.156512580296	0.044766912712936
0	3731	184.197558466415	0.044931096257412
0	3732	184.214784402062	0.045
0	3734	184.297558466415	0.045331096257412
0	3735	184.339784402062	0.0455
0	3737	184.397558466415	0.045731096257412
0	3737	184.457145043	0.045969442563752
0	3738	184.464784402062	0.046
0	3740	184.497558466415	0.046131096257412
0	3742	184.589784402062	0.0465
0	3743	184.597558466415	0.046531096257412
0	3745	184.697558466415	0.046931096257412
0	3746	184.714784402062	0.047
0	3748	184.797558466415	0.047331096257412
0	3749	184.839784402062	0.0475
0	3751	184.897558466415	0.047731096257412
0	3752	184.964784402062	0.048
0	3754	184.997558466415	0.048131096257412
0	3755	185.071734988	0.048427802343752
0	3756	185.089784402062	0.048015
0	3756	185.089784402062	0.048015
0	3757	185.097558466415	0.048046096257412
0	3759	185.197558466415	0.048446096257412
0	3760	185.211034402062	0.0485
0	3762	185.297558466415	0.048846096257412
0	3763	185.336034402062	0.049
0	3766	185.397558466415	0.049246096257412
0	3767	185.461034402062	0.0495
0	3769	185.497558466415	0.049646096257412
0	3771	185.586034402062	0.05
0	3772	185.597558466415	0.05
0	3772	185.614351462	0.05
0	3774	185.697558466415	0.05
0	3776	185.797558466415	0.05
0	3778	185.897558466415	0.05
0	3780	185.997558466415	0.05
0	3782	186.097558466415	0.05
0	3784	186.197558466415	0.05
0	3785	186.286256932	0.05
0	3786	186.297558466415	0.0495
0	3786	186.297558466415	0.0495
0	3788	186.397558466415	0.0499
0	3790	186.497558466415	0.05
0	3792	186.597558466415	0.05
0	3794	186.697558466415	0.05
0	3796	186.797558466415	0.05
0	3798	186.897558466415	0.05
0	3798	186.958117045	0.05
0	3800	186.997558466415	0.05
0	3802	187.097558466415	0.05
0	3804	187.197558466415	0.05
0	3806	187.297558466415	0.05
0	3808	187.397558466415	0.05
0	3808	187.433881336	0.05
0	3810	187.497558466415	0.05
0	3812	187.597558466415	0.05
0	3814	187.697558466415	0.05
0	3816	187.797558466415	0.0495
0	3816	187.797558466415	0.0495
0	3818	187.897558466415	0.0499
0	3819	187.996458592	0.05
0	3820	187.997558466415	0.05
0	3822	188.097558466415	0.05
0	3824	188.197558466415	0.05
0	3826	188.297558466415	0.05
0	3828	188.397558466415	0.05
0	3828	188.469024874	0.05
0	3830	188.497558466415	0.05
0	3832	188.597558466415	0.05
0	3834	188.697558466415	0.05
0	3836	188.797558466415	0.05
0	3838	188.897558466415	0.05
0	3839	188.990566156	0.05
0	3840	188.997558466415	0.05
0	3842	189.097558466415	0.05
0	3844	189.197558466415	0.0495
0	3844	189.197558466415	0.0495
0	3846	189.297558466415	0.0499
0	3848	189.397558466415	0.05
0	3848	189.428737003	0.05
0	3850	189.497558466415	0.05
0	3852	189.597558466415	0.05
0	3854	189.697558466415	0.05
0	3856	189.797558466415	0.05
0	3856	189.822680695	0.05
0	3858	189.897558466415	0.05
0	3860	189.997558466415	0.05
0	3862	190.097558466415	0.05
0	3863	190.109264789317	0.05
0	3865	190.209264789317	0.05
0	3867	190.309264789317	0.05
0	3867	190.363641211	0.05
0	3869	190.409264789317	0.05
0	3871	190.509264789317	0.05
0	3873	190.609264789317	0.05
0	3875	190.709264789317	0.05
0	3877	190.809264789317	0.05
0	3879	190.909264789317	0.05
0	3880	190.998091834	0.05
0	3881	191.009264789317	0.05
0	3883	191.109264789317	0.05
0	3885	191.209264789317	0.05
0	3887	191.309264789317	0.05
0	3889	191.409264789317	0.05
0	3891	191.509264789317	0.05
0	3891	191.53795585	0.05
0	3893	191.609264789317	0.05
0	3895	191.709264789317	0.05
0	3897	191.809264789317	0.05
0	3899	191.909264789317	0.05
0	3901	192.009264789317	0.05
0	3901	192.073351624	0.05
0	3903	192.109264789317	0.05
0	3905	192.209264789317	0.05
0	3907	192.309264789317	0.05
0	3909	192.409264789317	0.05
0	3911	192.509264789317	0.05
0	3911	192.517250872	0.05
0	3913	192.609264789317	0.05
0	3915	192.709264789317	0.05
0	3917	192.809264789317	0.05
0	3919	192.909264789317	0.05
0	3920	192.997549504	0.05
0	3921	193.009264789317	0.05
0	3923	193.109264789317	0.05
0	3925	193.209264789317	0.05
0	3927	193.309264789317	0.05
0	3929	193.409264789317	0.05
0	3929	193.460273548	0.05
0	3931	193.509264789317	0.05
0	3933	193.609264789317	0.05
0	3935	193.709264789317	0.05
0	3937	193.809264789317	0.05
0	3938	193.900709206	0.05
0	3939	193.909264789317	0.05
0	3941	194.009264789317	0.05
0	3943	194.109264789317	0.05
0	3945	194.209264789317	0.05
0	3947	194.309264789317	0.05
0	3947	194.352931396	0.05
0	3949	194.409264789317	0.05
0	3951	194.509264789317	0.05
0	3953	194.609264789317	0.05
0	3955	194.709264789317	0.05
0	3957	194.809264789317	0.05
0	3957	194.814701059	0.05
0	3959	194.909264789317	0.05
0	3961	195.009264789317	0.05
0	3963	195.109264789317	0.05
0	3965	195.209264789317	0.05
0	3967	195.309264789317	0.05
0	3967	195.376479667	0.05
0	3969	195.409264789317	0.05
0	3971	195.509264789317	0.05
0	3973	195.609264789317	0.05
0	3975	195.709264789317	0.05
0	3977	195.809264789317	0.05
0	3978	195.901792312	0.05
0	3979	195.909264789317	0.05
0	3981	196.009264789317	0.05
0	3983	196.109264789317	0.05
0	3985	196.209264789317	0.05
0	3987	196.309264789317	0.05
0	3988	196.382066695	0.05
0	3989	196.409264789317	0.05
0	3991	196.509264789317	0.05
0	3993	196.609264789317	0.05
0	3995	196.709264789317	0.05
0	3997	196.809264789317	0.05
0	3998	196.881067132	0.05
0	3999	196.909264789317	0.05
0	4001	197.009264789317	0.05
0	4003	197.109264789317	0.05
0	4005	197.209264789317	0.05
0	4007	197.309264789317	0.05
0	4007	197.365319929	0.05
0	4009	197.409264789317	0.05
0	4011	197.509264789317	0.05
0	4013	197.609264789317	0.05
0	4015	197.709264789317	0.05
0	4017	197.809264789317	0.05
0	4017	197.826421624	0.05
0	4019	197.909264789317	0.05
0	4021	198.009264789317	0.05
0	4022	198.098899804	0.05
0	4023	198.109264789317	0.05
0	4025	198.209264789317	0.05
0	4027	198.309264789317	0.05
0	4029	198.409264789317	0.05
0	4031	198.509264789317	0.05
0	4033	198.609264789317	0.05
0	4033	198.611544619	0.05
0	4035	198.709264789317	0.05
0	4037	198.809264789317	0.05
0	4039	198.909264789317	0.05
0	4040	199.001868802	0.0495
0	4040	199.001868802	0.0495
0	4041	199.009264789317	0.049529583949268
0	4043	199.109264789317	0.049929583949268
0	4045	199.177466750342	0.05
0	4047	199.277466750342	0.05
0	4049	199.377466750342	0.05
0	4049	199.436994547	0.05
0	4051	199.477466750342	0.05
0	4053	199.577466750342	0.05
0	4055	199.677466750342	0.05
0	4057	199.777466750342	0.05
0	4059	199.877466750342	0.05
0	4059	199.891136167	0.05
0	4061	199.977466750342	0.05
0	4063	200.077466750342	0.05
0	4065	200.177466750342	0.05
0	4067	200.277466750342	0.05
0	4069	200.377466750342	0.05
0	4069	200.401782523	0.05
0	4071	200.477466750342	0.05
0	4073	200.577466750342	0.05
0	4075	200.677466750342	0.05
0	4077	200.777466750342	0.05
0	4077	200.811529885	0.05
0	4079	200.877466750342	0.05
0	4081	200.977466750342	0.05
0	4081	201.03502957	0.05
[...]
2	4315	212.576971050334	0.04851495
2	4317	212.676971050334	0.04851495
2	4318	212.76130963	0.04851495
2	4319	212.776971050334	0.0480298005
2	4319	212.776971050334	0.0480298005
2	4321	212.876971050334	0.0480298005
2	4323	212.976971050334	0.0480298005
2	4325	213.076971050334	0.0480298005
2	4327	213.176971050334	0.0480298005
2	4329	213.276971050334	0.0480298005
2	4329	213.288551509	0.0480298005
2	4331	213.376971050334	0.0480298005
2	4333	213.476971050334	0.0480298005
2	4335	213.576971050334	0.0480298005
2	4337	213.676971050334	0.0480298005
2	4338	213.752968174	0.0480298005
2	4339	213.776971050334	0.0480298005
2	4341	213.876971050334	0.0480298005
2	4343	213.976971050334	0.0480298005
2	4345	214.076971050334	0.0480298005
2	4347	214.176971050334	0.0480298005
2	4349	214.276971050334	0.047549502495
2	4349	214.276971050334	0.047549502495
2	4349	214.278510418	0.047549502495
2	4351	214.376971050334	0.047549502495
2	4353	214.476971050334	0.047549502495
2	4355	214.576971050334	0.047549502495
2	4357	214.676971050334	0.047549502495
2	4359	214.776971050334	0.047549502495
2	4359	214.798552414	0.047549502495
2	4361	214.876971050334	0.047549502495
2	4363	214.976971050334	0.047549502495
2	4365	215.076971050334	0.047549502495
2	4367	215.176971050334	0.047549502495
2	4369	215.276971050334	0.047549502495
2	4370	215.350035082	0.047549502495
2	4371	215.376971050334	0.047549502495
2	4373	215.476971050334	0.047549502495
2	4375	215.576971050334	0.047549502495
2	4377	215.676971050334	0.04707400747005
2	4377	215.676971050334	0.04707400747005
2	4379	215.776971050334	0.04707400747005
2	4380	215.865367315	0.04707400747005
2	4381	215.876971050334	0.04707400747005
2	4383	215.976971050334	0.04707400747005
2	4385	216.076971050334	0.04707400747005
2	4387	216.176971050334	0.04707400747005
2	4389	216.276971050334	0.04707400747005
2	4390	216.337891516	0.04707400747005
2	4391	216.376971050334	0.04707400747005
2	4393	216.476971050334	0.04707400747005
2	4395	216.576971050334	0.04707400747005
2	4395	216.606244807	0.04707400747005
2	4397	216.676971050334	0.04707400747005
2	4399	216.776971050334	0.04707400747005
2	4401	216.876971050334	0.04707400747005
2	4403	216.976971050334	0.04707400747005
2	4403	216.996018037	0.04707400747005
2	4405	217.076971050334	0.04707400747005
2	4407	217.176971050334	0.04707400747005
2	4409	217.276971050334	0.04707400747005
2	4411	217.376971050334	0.04707400747005
2	4413	217.476971050334	0.04707400747005
2	4413	217.489445461	0.04707400747005
2	4415	217.576971050334	0.04707400747005
2	4417	217.676971050334	0.04707400747005
2	4419	217.776971050334	0.04707400747005
2	4421	217.876971050334	0.04707400747005
2	4423	217.976971050334	0.04707400747005
2	4424	218.024103622	0.04707400747005
2	4425	218.076971050334	0.04707400747005
2	4427	218.176971050334	0.04707400747005
2	4429	218.276971050334	0.04707400747005
2	4431	218.376971050334	0.04707400747005
2	4433	218.476971050334	0.04660326739535
2	4433	218.476971050334	0.04660326739535
2	4433	218.512168984	0.04660326739535
2	4435	218.576971050334	0.04660326739535
2	4437	218.676971050334	0.04660326739535
2	4439	218.776971050334	0.04660326739535
2	4441	218.876971050334	0.04660326739535
2	4443	218.976971050334	0.04660326739535
2	4444	219.03170998	0.04660326739535
2	4445	219.076971050334	0.04660326739535
2	4447	219.176971050334	0.04660326739535
2	4449	219.276971050334	0.04660326739535
2	4451	219.376971050334	0.04660326739535
2	4453	219.476971050334	0.04660326739535
2	4453	219.493061203	0.04660326739535
2	4455	219.576971050334	0.04660326739535
2	4457	219.676971050334	0.04660326739535
2	4459	219.776971050334	0.04660326739535
2	4461	219.876971050334	0.046137234721396
2	4461	219.876971050334	0.046137234721396
2	4463	219.976971050334	0.046137234721396
2	4464	220.029876241	0.046137234721396
2	4465	220.076971050334	0.046137234721396
2	4467	220.176971050334	0.046137234721396
2	4469	220.276971050334	0.046137234721396
2	4471	220.376971050334	0.046137234721396
2	4473	220.476971050334	0.046137234721396
2	4473	220.486035901	0.046137234721396
2	4475	220.576971050334	0.046137234721396
2	4477	220.676971050334	0.046137234721396
2	4479	220.776971050334	0.046137234721396
2	4481	220.876971050334	0.046137234721396
2	4483	220.976971050334	0.046137234721396
2	4485	221.076971050334	0.046137234721396
2	4487	221.176971050334	0.046137234721396
2	4487	221.188701343	0.046137234721396
2	4489	221.276971050334	0.045675862374182
2	4489	221.276971050334	0.045675862374182
2	4491	221.376971050334	0.045675862374182
2	4493	221.476971050334	0.045675862374182
2	4495	221.576971050334	0.045675862374182
2	4497	221.676971050334	0.045675862374182
2	4498	221.757761755	0.045675862374182
2	4499	221.776971050334	0.045675862374182
2	4501	221.876971050334	0.045675862374182
2	4503	221.976971050334	0.045675862374182
2	4505	222.076971050334	0.045675862374182
2	4507	222.176971050334	0.045675862374182
2	4508	222.204406902062	0.045675862374182
2	4510	222.276971050334	0.04596611896727
2	4511	222.285441308516	0.046
2	4511	222.320506201	0.046140259569936
2	4513	222.376971050334	0.046366118967272
2	4514	222.410441308516	0.0465
2	4516	222.476971050334	0.046766118967272
2	4518	222.535441308516	0.047
2	4519	222.576971050334	0.046694457777599
2	4519	222.576971050334	0.046694457777599
2	4521	222.660441308516	0.0475
2	4522	222.676971050334	0.047566118967272
2	4524	222.776971050334	0.047966118967272
2	4525	222.785441308516	0.048
2	4527	222.876971050334	0.048366118967272
2	4528	222.910441308516	0.0485
2	4529	222.974347165	0.048755623425936
2	4530	222.976971050334	0.048766118967272
2	4532	223.035441308516	0.049
2	4533	223.076971050334	0.049166118967272
2	4535	223.160441308516	0.0495
2	4536	223.176971050334	0.049566118967272
2	4538	223.276971050334	0.049966118967272
2	4539	223.285441308516	0.05
2	4541	223.376971050334	0.05
2	4543	223.476971050334	0.05
2	4543	223.479375412	0.05
2	4545	223.576971050334	0.05
2	4547	223.676971050334	0.05
2	4549	223.776971050334	0.0495
2	4549	223.776971050334	0.0495
2	4551	223.876971050334	0.0499
2	4552	223.962335392	0.05
2	4553	223.976971050334	0.05
2	4555	224.076971050334	0.05
2	4557	224.176971050334	0.05
2	4559	224.276971050334	0.05
2	4561	224.376971050334	0.05
2	4561	224.422265338	0.05
2	4563	224.476971050334	0.05
2	4566	224.576971050334	0.05
2	4568	224.676971050334	0.05
2	4570	224.776971050334	0.05
2	4572	224.876971050334	0.05
2	4574	224.976971050334	0.05
2	4574	225.004248454	0.05
2	4576	225.076971050334	0.05
2	4578	225.176971050334	0.05
2	4580	225.276971050334	0.05
2	4582	225.376971050334	0.05
2	4584	225.476971050334	0.05
2	4586	225.576971050334	0.05
2	4587	225.63235261	0.05
2	4588	225.676971050334	0.05
2	4590	225.776971050334	0.05
2	4591	225.8070833444	0.05
2	4593	225.876971050334	0.05
2	4595	225.976971050334	0.05
2	4597	226.076971050334	0.05
2	4597	226.110829375	0.05
2	4599	226.176971050334	0.05
2	4601	226.276971050334	0.05
2	4603	226.376971050334	0.05
2	4605	226.476971050334	0.05
2	4607	226.576971050334	0.0495
2	4607	226.576971050334	0.0495
2	4607	226.618335406	0.0495
2	4609	226.676971050334	0.0495
2	4611	226.776971050334	0.0495
2	4613	226.876971050334	0.0495
2	4615	226.976971050334	0.0495
2	4617	227.076971050334	0.0495
2	4619	227.176971050334	0.0495
2	4619	227.178892363	0.0495
2	4621	227.276971050334	0.0495
2	4623	227.376971050334	0.0495
2	4625	227.476971050334	0.0495
2	4627	227.576971050334	0.0495
2	4629	227.676971050334	0.0495
2	4631	227.776971050334	0.0495
2	4631	227.812939459	0.0495
2	4633	227.876971050334	0.0495
2	4635	227.976971050334	0.049005
2	4635	227.976971050334	0.049005
2	4637	228.076971050334	0.049005
2	4639	228.176971050334	0.049005
2	4641	228.276971050334	0.049005
2	4643	228.376971050334	0.049005
2	4644	228.442099606	0.049005
2	4645	228.476971050334	0.049005
2	4647	228.576971050334	0.049005
2	4649	228.676971050334	0.049005
2	4651	228.776971050334	0.049005
2	4653	228.876971050334	0.049005
2	4654	228.943984066	0.049005
2	4655	228.976971050334	0.049005
2	4657	229.076971050334	0.049005
2	4659	229.176971050334	0.049005
2	4661	229.276971050334	0.049005
2	4663	229.376971050334	0.049005
2	4664	229.460703277	0.04851495
2	4664	229.460703277	0.04851495
2	4665	229.476971050334	0.04851495
2	4667	229.576971050334	0.04851495
2	4669	229.676971050334	0.04851495
2	4671	229.776971050334	0.04851495
2	4673	229.876971050334	0.04851495
2	4674	229.953398746	0.04851495
2	4675	229.976971050334	0.04851495
2	4677	230.076971050334	0.04851495
2	4679	230.176971050334	0.04851495
2	4681	230.276971050334	0.04851495
2	4683	230.376971050334	0.04851495
2	4684	230.475896761	0.04851495
2	4685	230.476971050334	0.04851495
2	4687	230.576971050334	0.04851495
2	4689	230.676971050334	0.04851495
2	4691	230.776971050334	0.04851495
2	4693	230.876971050334	0.0480298005
2	4693	230.876971050334	0.0480298005
2	4694	230.942975482	0.0480298005
2	4695	230.976971050334	0.0480298005
2	4697	231.076971050334	0.0480298005
2	4699	231.176971050334	0.0480298005
2	4701	231.276971050334	0.0480298005
2	4703	231.376971050334	0.0480298005
2	4704	231.444794491	0.0480298005
2	4705	231.476971050334	0.0480298005
2	4707	231.576971050334	0.0480298005
2	4709	231.676971050334	0.0480298005
2	4711	231.776971050334	0.0480298005
2	4713	231.876971050334	0.0480298005
2	4714	231.960515122	0.0480298005
2	4715	231.976971050334	0.0480298005
2	4717	232.076971050334	0.0480298005
2	4719	232.176971050334	0.0480298005
2	4721	232.276971050334	0.047549502495
2	4721	232.276971050334	0.047549502495
2	4723	232.376971050334	0.047549502495
2	4724	232.46628844	0.047549502495
2	4725	232.476971050334	0.047549502495
2	4727	232.576971050334	0.047549502495
2	4729	232.676971050334	0.047549502495
2	4730	232.742469625	0.047549502495
2	4731	232.776971050334	0.047549502495
2	4733	232.876971050334	0.047549502495
2	4735	232.976971050334	0.047549502495
2	4735	233.021017189	0.047549502495
2	4737	233.076971050334	0.047549502495
2	4739	233.176971050334	0.047549502495
2	4741	233.276971050334	0.047549502495
2	4743	233.376971050334	0.047549502495
2	4745	233.476971050334	0.047549502495
2	4745	233.481039181	0.047549502495
2	4747	233.576971050334	0.04707400747005
2	4747	233.576971050334	0.04707400747005
2	4749	233.676971050334	0.04707400747005
2	4751	233.776971050334	0.04707400747005
2	4753	233.876971050334	0.04707400747005
2	4753	233.879634646	0.04707400747005
2	4755	233.976971050334	0.04707400747005
2	4757	234.076971050334	0.04707400747005
2	4759	234.176971050334	0.04707400747005
2	4761	234.276971050334	0.04707400747005
2	4761	234.318609838	0.04707400747005
2	4763	234.376971050334	0.04707400747005
2	4765	234.476971050334	0.04707400747005
2	4767	234.576971050334	0.04707400747005
2	4767	234.600904702	0.04707400747005
2	4769	234.676971050334	0.04707400747005
2	4771	234.776971050334	0.04707400747005
2	4773	234.876971050334	0.04707400747005
2	4775	234.976971050334	0.04660326739535
2	4775	234.976971050334	0.04660326739535
2	4777	235.076971050334	0.04660326739535
2	4779	235.176971050334	0.04660326739535
2	4779	235.192325524	0.04660326739535
2	4781	235.276971050334	0.04660326739535
2	4783	235.376971050334	0.04660326739535
2	4785	235.476971050334	0.04660326739535
2	4787	235.576971050334	0.04660326739535
2	4789	235.676971050334	0.04660326739535
2	4789	235.701315019	0.04660326739535
2	4791	235.776971050334	0.04660326739535
2	4793	235.876971050334	0.04660326739535
2	4795	235.976971050334	0.04660326739535
2	4797	236.076971050334	0.04660326739535
2	4799	236.176971050334	0.04660326739535
2	4800	236.229494752	0.04660326739535
2	4801	236.276971050334	0.04660326739535
2	4803	236.376971050334	0.046137234721396
2	4803	236.376971050334	0.046137234721396
2	4805	236.476971050334	0.046137234721396
2	4807	236.576971050334	0.046137234721396
2	4809	236.676971050334	0.046137234721396
2	4810	236.757436153	0.046137234721396
2	4811	236.776971050334	0.046137234721396
2	4813	236.876971050334	0.046137234721396
2	4815	236.976971050334	0.046137234721396
2	4816	237.041934616	0.046137234721396
2	4817	237.076971050334	0.046137234721396
2	4819	237.176971050334	0.046137234721396
2	4821	237.276971050334	0.046137234721396
2	4821	237.307582921	0.046137234721396
2	4823	237.376971050334	0.046137234721396
2	4825	237.476971050334	0.046137234721396
2	4827	237.576971050334	0.046137234721396
2	4829	237.676971050334	0.046137234721396
2	4830	237.744908158	0.045675862374182
2	4830	237.744908158	0.045675862374182
2	4831	237.776971050334	0.045675862374182
2	4833	237.876971050334	0.045675862374182
2	4835	237.976971050334	0.045675862374182
2	4837	238.076971050334	0.045675862374182
2	4839	238.176971050334	0.045675862374182
2	4839	238.201057798	0.045675862374182
2	4841	238.276971050334	0.045675862374182
2	4843	238.376971050334	0.045675862374182
2	4845	238.476971050334	0.045675862374182
2	4847	238.576971050334	0.045675862374182
2	4847	238.594925302	0.045675862374182
2	4849	238.676971050334	0.045675862374182
2	4851	238.776971050334	0.045675862374182
2	4852	238.83652567	0.045675862374182
2	4853	238.876971050334	0.045675862374182
2	4855	238.976971050334	0.045675862374182
2	4857	239.076971050334	0.04521910375044
2	4857	239.076971050334	0.04521910375044
2	4859	239.176971050334	0.04521910375044
2	4861	239.276971050334	0.04521910375044
2	4861	239.316112099	0.04521910375044
2	4863	239.376971050334	0.04521910375044
2	4865	239.476971050334	0.04521910375044
2	4867	239.576971050334	0.04521910375044
2	4869	239.676971050334	0.04521910375044
2	4871	239.776971050334	0.04521910375044
2	4871	239.817423436	0.04521910375044
2	4873	239.876971050334	0.04521910375044
2	4875	239.976971050334	0.04521910375044
2	4877	240.076971050334	0.04521910375044
2	4879	240.176971050334	0.04521910375044
2	4881	240.276971050334	0.04521910375044
2	4882	240.359732929	0.04521910375044
2	4883	240.376971050334	0.04521910375044
2	4885	240.476971050334	0.044766912712936
2	4885	240.476971050334	0.044766912712936
2	4887	240.576971050334	0.044766912712936
2	4889	240.676971050334	0.044766912712936
2	4891	240.776971050334	0.044766912712936
2	4891	240.804604549	0.044766912712936
2	4893	240.876971050334	0.044766912712936
2	4894	240.903645811896	0.044766912712936
2	4896	240.961917633662	0.045
2	4897	240.976971050334	0.045060213666688
2	4899	241.076971050334	0.045460213666688
2	4900	241.086917633662	0.0455
2	4902	241.176971050334	0.045860213666688
2	4903	241.211917633662	0.046
2	4904	241.24713505	0.046140869665352
2	4905	241.272500823184	0.046242332758088
2	4906	241.276971050334	0.046242332758088
2	4908	241.376971050334	0.046242332758088
2	4910	241.476971050334	0.046242332758088
2	4912	241.576971050334	0.046242332758088
2	4914	241.676971050334	0.046242332758088
2	4914	241.68091771	0.045779909430507
2	4914	241.68091771	0.045779909430507
2	4916	241.776971050334	0.045779909430507
2	4918	241.876971050334	0.045779909430507
2	4919	241.940060803	0.045779909430507
2	4920	241.976971050334	0.045779909430507
2	4922	242.076971050334	0.045779909430507
2	4924	242.176971050334	0.045779909430507
2	4926	242.276971050334	0.045779909430507
2	4928	242.376971050334	0.045779909430507
2	4930	242.476971050334	0.045779909430507
2	4932	242.576971050334	0.045779909430507
2	4932	242.622577651	0.045779909430507
2	4934	242.676971050334	0.045779909430507
2	4936	242.776971050334	0.045779909430507
2	4938	242.876971050334	0.045779909430507
2	4938	242.892902452	0.045779909430507
2	4940	242.976971050334	0.045779909430507
2	4942	243.076971050334	0.045779909430507
2	4944	243.176971050334	0.045779909430507
2	4946	243.276971050334	0.045779909430507
2	4948	243.376971050334	0.045779909430507
2	4948	243.397466716	0.045779909430507
2	4950	243.476971050334	0.045779909430507
2	4952	243.576971050334	0.045779909430507
2	4954	243.676971050334	0.045779909430507
2	4956	243.776971050334	0.045779909430507
2	4957	243.828315631	0.045779909430507
2	4958	243.876971050334	0.045779909430507
2	4960	243.976971050334	0.045779909430507
2	4962	244.076971050334	0.045779909430507
2	4964	244.176971050334	0.045779909430507
2	4966	244.276971050334	0.045779909430507
2	4968	244.376971050334	0.045779909430507
2	4968	244.420443427	0.045779909430507
2	4970	244.476971050334	0.045779909430507
2	4972	244.576971050334	0.045779909430507
2	4974	244.676971050334	0.045779909430507
2	4976	244.776971050334	0.045779909430507
2	4978	244.876971050334	0.045779909430507
2	4979	244.964656957	0.045779909430507
2	4980	244.976971050334	0.045779909430507
2	4982	245.076971050334	0.045779909430507
2	4984	245.176971050334	0.045779909430507
2	4986	245.276971050334	0.045779909430507
2	4988	245.376971050334	0.045779909430507
2	4990	245.476971050334	0.045779909430507
2	4992	245.576971050334	0.045779909430507
2	4993	245.654239015	0.045779909430507
2	4994	245.676971050334	0.045779909430507
2	4996	245.776971050334	0.045779909430507
2	4998	245.876971050334	0.045779909430507
2	5000	245.976971050334	0.045779909430507
2	5002	246.076971050334	0.045779909430507
2	5002	246.105320953	0.045779909430507
2	5004	246.176971050334	0.045779909430507
2	5006	246.276971050334	0.045779909430507
2	5008	246.376971050334	0.045779909430507
2	5010	246.476971050334	0.045779909430507
2	5010	246.509654914	0.045779909430507
2	5012	246.576971050334	0.045779909430507
2	5014	246.676971050334	0.045779909430507
2	5016	246.776971050334	0.045779909430507
2	5018	246.876971050334	0.045779909430507
2	5020	246.976971050334	0.045779909430507
2	5021	247.056692551	0.045779909430507
2	5022	247.076971050334	0.045779909430507
2	5024	247.176971050334	0.045779909430507
2	5026	247.276971050334	0.045779909430507
2	5027	247.322603243204	0.045322110336202
2	5027	247.322603243204	0.045322110336202
2	5029	247.422603243204	0.045322110336202
2	5030	247.494438283	0.045322110336202
2	5031	247.522603243204	0.045322110336202
2	5033	247.622603243204	0.045322110336202
2	5035	247.722603243204	0.045322110336202
2	5037	247.822603243204	0.045322110336202
2	5039	247.922603243204	0.045322110336202
2	5041	248.022603243204	0.045322110336202
2	5042	248.072986126	0.045322110336202
2	5043	248.122603243204	0.045322110336202
2	5045	248.222603243204	0.045322110336202
2	5047	248.322603243204	0.045322110336202
2	5049	248.422603243204	0.045322110336202
2	5051	248.522603243204	0.045322110336202
2	5052	248.550711493	0.045322110336202
2	5053	248.622603243204	0.045322110336202
2	5055	248.722603243204	0.04486888923284
2	5055	248.722603243204	0.04486888923284
2	5057	248.822603243204	0.04486888923284
2	5059	248.922603243204	0.04486888923284
2	5061	249.022603243204	0.04486888923284
2	5062	249.060186418	0.04486888923284
2	5063	249.122603243204	0.04486888923284
2	5065	249.222603243204	0.04486888923284
2	5067	249.322603243204	0.04486888923284
2	5069	249.422603243204	0.04486888923284
2	5071	249.522603243204	0.04486888923284
2	5073	249.573144121	0.04486888923284
2	5074	249.622603243204	0.04486888923284
2	5077	249.722603243204	0.04486888923284
2	5080	249.822603243204	0.04486888923284
2	5083	249.922603243204	0.04486888923284
2	5084	250.016452423	0.044420200340512
2	5084	250.016452423	0.044420200340512
2	5085	250.022603243204	0.044420200340512
2	5088	250.122603243204	0.044420200340512
2	5090	250.222603243204	0.044420200340512
2	5092	250.322603243204	0.044420200340512
2	5094	250.422603243204	0.044420200340512
2	5095	250.482540472	0.044420200340512
2	5095	250.522603243204	0.044420200340512
3	0	0	0.004
3	940	46.974101355068	0
3	1455	72.038161563275	0.004
3	1823	89.235030850344	0
3	1936	94.847893652462	0.004
3	2785	137.188872708364	0
3	2791	137.444296656939	0.004
3	4203	207.058305612173	0
3	4508	222.204406902062	0.004
3	4591	225.8070833444	0
3	4894	240.903645811896	0.004
3	4905	241.272500823184	0
4	0	0	0.004
4	461	23.08057828677	0
4	1021	50.952763834445	0.004
4	1388	68.704522475837	0
4	1780	87.722437521702	0.004
4	3122	153.952235618018	0
4	3729	184.156512580296	0.004
4	4565	224.525151366243	0
4	5073	249.551561115402	0.004
5	0	0	0.004
5	940	46.974101355068	0
5	1455	72.038161563275	0.004
5	1823	89.235030850344	0
5	1936	94.847893652462	0.004
5	2785	137.188872708364	0
5	2791	137.444296656939	0.004
5	4203	207.058305612173	0
5	4508	222.204406902062	0.004
5	4591	225.8070833444	0
5	4894	240.903645811896	0.004
5	4905	241.272500823184	0

