version 2
run Mysterio_ex2-0-20210824-16:15:03-17444
attr configname Mysterio_ex2
attr datetime 20210824-16:15:03
attr experiment Mysterio_ex2
attr inifile omnetpp.ini
attr iterationvars ""
attr iterationvarsf ""
attr measurement ""
attr network MysterioCommunication2
attr processid 17444
attr repetition 0
attr replication #0
attr resultdir results
attr runnumber 0
attr seedset 0
param *.host[*].mobility.numeroDrones 2
param *.numHosts 2
param *.host[*].osgModel "\"3d/drone.ive.100.scale.0,0,90.rot\""
param *.basestation.osgModel "\"3d/car.ive.50.scale.0,0,90.rot\""
param *.canvasVisualizer.energyStorageVisualizer.displayEnergyStorages true
param *.host[*].hasStatus true
param *.host[*].energyStorage.typename "\"SimpleEpEnergyStorage\""
param *.host[*].wlan[*].radio.energyConsumer.typename "\"StateBasedEpEnergyConsumer\""
param *.host[*].energyManagement.typename "\"SimpleEpEnergyManagement\""
param *.host[*].energyStorage.nominalCapacity 0.05J
param *.host[*].energyManagement.nodeShutdownCapacity "0.1 * energyStorage.nominalCapacity"
param *.host[*].energyManagement.nodeStartCapacity "0.5 * energyStorage.nominalCapacity"
param *.host[*].energyStorage.initialCapacity 0.05J
param *.host[*].energyGenerator.typename "\"AlternatingEpEnergyGenerator\""
param *.host[*].energyGenerator.powerGeneration 4mW
param *.host[*].energyGenerator.sleepInterval exponential(25s)
param *.host[*].energyGenerator.generationInterval exponential(25s)
param *.host[*].mobility.typename "\"UAVMobility\""
param *.host[*].mobility.changeInterval 1s
param *.host[*].mobility.initialMovementHeading "uniform(0deg, 360deg)"
param *.host[*].mobility.initialMovementElevation "uniform(-90deg, 90deg)"
param *.host[*].mobility.angleDelta uniform(-10deg,10deg)
param *.host[*].mobility.rotationAxisAngle uniform(-10deg,10deg)
param *.host[*].mobility.speed uniform(10mps,20mps)
param *.host[*].mobility.faceForward false
param *.host[*].mobility.initialX 220m
param *.host[*].mobility.initialY 220m
param *.host[*].mobility.initialZ 80m
param *.visualizer.osgVisualizer.typename "\"IntegratedOsgVisualizer\""
param *.visualizer.osgVisualizer.sceneVisualizer.clearColor "\"skyblue\""
param *.visualizer.osgVisualizer.sceneVisualizer.sceneImage "\"showcases/desert\""
param *.visualizer.osgVisualizer.sceneVisualizer.sceneImageSize 5000m
param *.visualizer.osgVisualizer.sceneVisualizer.axisLength 1000m
param *.visualizer.osgVisualizer.sceneVisualizer.sceneMinX -2000m
param *.visualizer.osgVisualizer.sceneVisualizer.sceneMinY -2000m
param *.visualizer.osgVisualizer.sceneVisualizer.sceneMinZ 0m
param *.visualizer.osgVisualizer.sceneVisualizer.sceneMaxX 3000m
param *.visualizer.osgVisualizer.sceneVisualizer.sceneMaxY 3000m
param *.visualizer.osgVisualizer.sceneVisualizer.sceneMaxZ 1000m
param *.visualizer.osgVisualizer.networkNodeVisualizer.displayModuleName false
param *.visualizer.*.mobilityVisualizer.displayMobility true
param *.visualizer.*.mobilityVisualizer.displayPositions true
param *.visualizer.*.mobilityVisualizer.displayOrientations false
param *.visualizer.*.mobilityVisualizer.displayVelocities true
param *.visualizer.*.mobilityVisualizer.displayMovementTrails true
param *.visualizer.*.mobilityVisualizer.animationSpeed 3
param **.constraintAreaMinX 0m
param **.constraintAreaMinY 0m
param **.constraintAreaMinZ 0m
param **.constraintAreaMaxX 1000m
param **.constraintAreaMaxY 1000m
param **.constraintAreaMaxZ 1000m
param **.networkConfiguratorModule "\"\""

vector 0 MysterioCommunication2.host[0].energyStorage residualEnergyCapacity:vector ETV
attr interpolationmode linear
attr source residualEnergyCapacityChanged
attr title "Residual energy capacity, vector"
vector 1 MysterioCommunication2.host[0].energyGenerator powerGeneration:vector ETV
attr interpolationmode sample-hold
attr source powerGenerationChanged
attr title "Power generation, vector"
vector 2 MysterioCommunication2.host[1].energyStorage residualEnergyCapacity:vector ETV
attr interpolationmode linear
attr source residualEnergyCapacityChanged
attr title "Residual energy capacity, vector"
vector 3 MysterioCommunication2.host[1].energyGenerator powerGeneration:vector ETV
attr interpolationmode sample-hold
attr source powerGenerationChanged
attr title "Power generation, vector"
vector 4 MysterioCommunication2.host[0].energyStorage powerGeneration:vector ETV
attr interpolationmode sample-hold
attr source powerGenerationChanged
attr title "Power generation, vector"
vector 5 MysterioCommunication2.host[1].energyStorage powerGeneration:vector ETV
attr interpolationmode sample-hold
attr source powerGenerationChanged
attr title "Power generation, vector"
0	0	0	0.05
0	0	0.1	0.05
0	3	0.2	0.05
0	4	0.203437057	0.05
0	5	0.3	0.05
0	7	0.4	0.05
0	9	0.5	0.05
0	11	0.6	0.05
0	13	0.7	0.05
0	15	0.8	0.05
0	16	0.847013221	0.05
0	17	0.9	0.05
0	19	1	0.05
0	21	1.1	0.05
0	23	1.2	0.05
0	25	1.3	0.05
0	27	1.4	0.05
0	29	1.5	0.05
0	31	1.6	0.05
0	32	1.693885195	0.05
0	33	1.7	0.05
0	35	1.8	0.05
0	37	1.9	0.05
0	39	2	0.05
0	41	2.1	0.05
0	42	2.132397748	0.05
0	43	2.2	0.05
0	45	2.3	0.05
0	47	2.4	0.05
0	49	2.5	0.05
0	51	2.6	0.05
0	52	2.66007403	0.05
0	53	2.7	0.05
0	55	2.8	0.05
0	57	2.9	0.05
0	59	3	0.05
0	61	3.1	0.05
0	63	3.2	0.05
0	65	3.3	0.05
0	67	3.4	0.05
0	68	3.409622941	0.05
0	69	3.5	0.05
0	71	3.6	0.05
0	73	3.7	0.05
0	75	3.8	0.05
0	77	3.9	0.05
0	79	4	0.05
0	80	4.032649453	0.05
0	81	4.1	0.05
0	83	4.2	0.05
0	85	4.3	0.05
0	87	4.4	0.05
0	89	4.5	0.05
0	90	4.510643395	0.05
0	91	4.6	0.05
0	93	4.7	0.05
0	95	4.8	0.05
0	97	4.9	0.05
0	99	5	0.05
0	100	5.067513463	0.05
0	101	5.1	0.05
0	103	5.2	0.05
0	105	5.3	0.05
0	106	5.329155415	0.05
0	107	5.4	0.05
0	109	5.5	0.05
0	111	5.6	0.05
0	113	5.7	0.05
0	114	5.736223057	0.05
0	115	5.8	0.05
0	117	5.9	0.05
0	119	6	0.05
0	121	6.1	0.05
0	123	6.2	0.05
0	125	6.3	0.05
0	127	6.4	0.05
0	128	6.451642936	0.05
0	129	6.5	0.05
0	131	6.6	0.05
0	133	6.7	0.05
0	135	6.8	0.05
0	137	6.9	0.05
0	138	6.960288034	0.05
0	139	7	0.05
0	141	7.1	0.05
0	143	7.2	0.05
0	145	7.3	0.05
0	146	7.396291819	0.05
0	147	7.4	0.05
0	149	7.5	0.05
0	151	7.6	0.05
0	152	7.676642896	0.05
0	153	7.7	0.05
0	155	7.8	0.05
0	157	7.9	0.05
0	159	8	0.05
0	161	8.1	0.05
0	162	8.150854549	0.05
0	163	8.2	0.05
0	165	8.3	0.05
0	167	8.4	0.05
0	169	8.5	0.05
0	171	8.6	0.05
0	172	8.641361743	0.05
0	173	8.7	0.05
0	175	8.8	0.05
0	177	8.9	0.05
0	179	9	0.05
0	181	9.1	0.05
0	182	9.170052544	0.05
0	183	9.2	0.05
0	185	9.3	0.05
0	187	9.4	0.05
0	189	9.5	0.05
0	191	9.6	0.05
0	192	9.67227601	0.05
0	193	9.7	0.05
0	195	9.8	0.05
0	197	9.9	0.05
0	199	10	0.05
0	200	10.096349773	0.05
0	201	10.1	0.05
0	203	10.2	0.05
0	205	10.3	0.05
0	207	10.4	0.05
0	209	10.5	0.05
0	211	10.6	0.05
0	212	10.698580873	0.05
0	213	10.7	0.05
0	215	10.8	0.05
0	217	10.9	0.05
0	219	11	0.05
0	221	11.1	0.05
0	222	11.192536633	0.05
0	223	11.2	0.05
0	225	11.3	0.05
0	227	11.4	0.05
0	229	11.5	0.05
0	231	11.6	0.05
0	232	11.638298452	0.05
0	233	11.7	0.05
0	235	11.8	0.05
0	237	11.9	0.05
0	239	12	0.05
0	241	12.1	0.05
0	243	12.2	0.05
0	244	12.266777632	0.05
0	245	12.3	0.05
0	247	12.4	0.05
0	249	12.5	0.05
0	251	12.6	0.05
0	253	12.7	0.05
0	255	12.8	0.05
0	257	12.9	0.05
0	259	13	0.05
0	260	13.038417418	0.05
0	261	13.1	0.05
0	263	13.2	0.05
0	265	13.3	0.05
0	267	13.4	0.05
0	269	13.5	0.05
0	270	13.585161595	0.05
0	271	13.6	0.05
0	273	13.7	0.05
0	275	13.8	0.05
0	277	13.9	0.05
0	279	14	0.05
0	281	14.1	0.05
0	282	14.144480152	0.05
0	283	14.2	0.05
0	285	14.3	0.05
0	287	14.4	0.05
0	288	14.439378037	0.05
0	289	14.5	0.05
0	291	14.6	0.05
0	293	14.7	0.05
0	294	14.733355579	0.05
0	295	14.8	0.05
0	297	14.9	0.05
0	299	15	0.05
0	301	15.1	0.05
0	302	15.155283169	0.05
0	303	15.2	0.05
0	305	15.3	0.05
0	307	15.4	0.05
0	308	15.433573378	0.05
0	309	15.5	0.05
0	311	15.6	0.05
0	313	15.7	0.05
0	315	15.8	0.05
0	317	15.9	0.05
0	318	15.938643439	0.05
0	319	16	0.05
0	321	16.1	0.05
0	323	16.2	0.05
0	324	16.213865737	0.05
0	325	16.3	0.05
0	327	16.4	0.05
0	329	16.5	0.05
0	331	16.6	0.05
0	332	16.675917538	0.05
0	333	16.7	0.05
0	335	16.8	0.05
0	337	16.9	0.05
0	339	17	0.05
0	341	17.1	0.05
0	342	17.175729064	0.05
0	343	17.2	0.05
0	345	17.3	0.05
0	347	17.4	0.05
0	349	17.5	0.05
0	351	17.6	0.05
0	353	17.7	0.05
0	355	17.8	0.05
0	356	17.830710085	0.05
0	357	17.9	0.05
0	359	18	0.05
0	361	18.1	0.05
0	363	18.2	0.05
0	365	18.3	0.05
0	367	18.4	0.05
0	369	18.5	0.05
0	371	18.6	0.05
0	373	18.7	0.05
0	374	18.72509773	0.05
0	375	18.8	0.05
0	377	18.9	0.05
0	379	19	0.05
0	381	19.1	0.05
0	383	19.2	0.05
0	385	19.3	0.05
0	387	19.4	0.05
0	388	19.458040531	0.05
0	389	19.5	0.05
0	391	19.6	0.05
0	393	19.7	0.05
0	394	19.723525087	0.05
0	395	19.8	0.05
0	397	19.9	0.05
0	399	20	0.05
0	401	20.1	0.05
0	403	20.2	0.05
0	404	20.207809579	0.05
0	405	20.3	0.05
0	407	20.4	0.05
0	409	20.5	0.05
0	411	20.6	0.05
0	412	20.629799383	0.05
0	413	20.7	0.05
0	415	20.8	0.05
0	416	20.867757514	0.05
0	417	20.9	0.05
0	419	21	0.05
0	421	21.1	0.05
0	423	21.2	0.05
0	425	21.3	0.05
0	427	21.4	0.05
0	428	21.41654437	0.05
0	429	21.5	0.05
0	431	21.6	0.05
0	433	21.7	0.05
0	434	21.716589415	0.05
0	435	21.8	0.05
0	437	21.9	0.05
0	439	22	0.05
0	441	22.1	0.05
0	442	22.150623859	0.05
0	443	22.2	0.05
0	445	22.3	0.05
0	447	22.4	0.05
0	448	22.426746082	0.05
0	449	22.5	0.05
0	451	22.6	0.05
0	453	22.7	0.05
0	455	22.8	0.05
0	457	22.9	0.05
0	458	22.934026144	0.05
0	459	23	0.05
0	461	23.08057828677	0.05
0	462	23.1	0.05
0	464	23.2	0.05
0	466	23.3	0.05
0	468	23.4	0.05
0	469	23.485172869	0.05
0	470	23.5	0.05
0	472	23.6	0.05
0	474	23.7	0.05
0	476	23.8	0.05
0	478	23.9	0.05
0	480	24	0.0495
0	480	24	0.0495
0	481	24.051211597	0.0495
0	482	24.1	0.0495
0	484	24.2	0.0495
0	486	24.3	0.0495
0	488	24.4	0.0495
0	490	24.5	0.0495
0	492	24.6	0.0495
0	493	24.694257619	0.0495
0	494	24.7	0.0495
0	496	24.8	0.0495
0	498	24.9	0.0495
0	499	24.974032282	0.0495
0	500	25	0.0495
0	502	25.1	0.0495
0	504	25.2	0.0495
0	505	25.246415233	0.0495
0	506	25.3	0.049005
0	506	25.3	0.049005
0	508	25.4	0.049005
0	510	25.5	0.049005
0	511	25.537549129	0.049005
0	512	25.6	0.049005
0	514	25.7	0.049005
0	516	25.8	0.049005
0	518	25.9	0.049005
0	520	26	0.049005
0	521	26.047352818	0.049005
0	522	26.1	0.049005
0	524	26.2	0.049005
0	526	26.3	0.049005
0	527	26.335423495	0.049005
0	528	26.4	0.049005
0	530	26.5	0.049005
0	532	26.6	0.049005
0	534	26.7	0.04851495
0	534	26.7	0.04851495
0	535	26.794244539	0.04851495
0	536	26.8	0.04851495
0	538	26.9	0.04851495
0	540	27	0.04851495
0	542	27.1	0.04851495
0	544	27.2	0.04851495
0	546	27.3	0.04851495
0	547	27.321255481	0.04851495
0	548	27.4	0.04851495
0	550	27.5	0.04851495
0	552	27.6	0.04851495
0	554	27.7	0.04851495
0	556	27.8	0.04851495
0	557	27.859151437	0.04851495
0	558	27.9	0.04851495
0	560	28	0.04851495
0	562	28.1	0.0480298005
0	562	28.1	0.0480298005
0	563	28.127992849	0.0480298005
0	564	28.2	0.0480298005
0	566	28.3	0.0480298005
0	568	28.4	0.0480298005
0	570	28.5	0.0480298005
0	571	28.550741422	0.0480298005
0	572	28.6	0.0480298005
0	574	28.7	0.0480298005
0	576	28.8	0.0480298005
0	578	28.9	0.0480298005
0	579	28.964195473	0.0480298005
0	580	29	0.0480298005
0	582	29.1	0.0480298005
0	584	29.2	0.0480298005
0	586	29.3	0.0480298005
0	588	29.4	0.0480298005
0	589	29.467049806	0.0480298005
0	590	29.5	0.0480298005
0	592	29.6	0.0480298005
0	594	29.7	0.0480298005
0	596	29.8	0.0480298005
0	598	29.9	0.0480298005
0	599	29.957662042	0.0480298005
0	600	30	0.0480298005
0	602	30.1	0.0480298005
0	604	30.2	0.0480298005
0	606	30.3	0.0480298005
0	608	30.4	0.0480298005
0	610	30.5	0.0480298005
0	611	30.501100513	0.0480298005
0	612	30.6	0.0480298005
0	614	30.7	0.0480298005
0	616	30.8	0.0480298005
0	618	30.9	0.047549502495
0	618	30.9	0.047549502495
0	619	30.909328987	0.047549502495
0	620	31	0.047549502495
0	622	31.1	0.047549502495
0	624	31.2	0.047549502495
0	626	31.3	0.047549502495
0	627	31.37137681	0.047549502495
0	628	31.4	0.047549502495
0	630	31.5	0.047549502495
0	632	31.6	0.047549502495
0	634	31.7	0.047549502495
0	635	31.798987204	0.047549502495
0	636	31.8	0.047549502495
0	638	31.9	0.047549502495
0	640	32	0.047549502495
0	642	32.1	0.047549502495
0	643	32.191394875	0.047549502495
0	644	32.2	0.04707400747005
0	644	32.2	0.04707400747005
0	646	32.3	0.04707400747005
0	648	32.4	0.04707400747005
0	650	32.5	0.04707400747005
0	652	32.6	0.04707400747005
0	653	32.617163824	0.04707400747005
0	654	32.7	0.04707400747005
0	656	32.8	0.04707400747005
0	658	32.9	0.04707400747005
0	659	32.995209451	0.04707400747005
0	660	33	0.04707400747005
0	662	33.1	0.04707400747005
0	664	33.2	0.04707400747005
0	665	33.248527312	0.04707400747005
0	666	33.3	0.04707400747005
0	668	33.4	0.04707400747005
0	670	33.5	0.04707400747005
0	672	33.6	0.04660326739535
0	672	33.6	0.04660326739535
0	674	33.7	0.04660326739535
0	675	33.703350952	0.04660326739535
0	676	33.8	0.04660326739535
0	678	33.9	0.04660326739535
0	679	33.936914431	0.04660326739535
0	680	34	0.04660326739535
0	682	34.1	0.04660326739535
0	684	34.2	0.04660326739535
0	686	34.3	0.04660326739535
0	687	34.391182381	0.04660326739535
0	688	34.4	0.04660326739535
0	690	34.5	0.04660326739535
0	692	34.6	0.04660326739535
0	693	34.670183752	0.04660326739535
0	694	34.7	0.04660326739535
0	696	34.8	0.04660326739535
0	698	34.9	0.046137234721396
0	698	34.9	0.046137234721396
0	699	34.951200361	0.046137234721396
0	700	35	0.046137234721396
0	702	35.1	0.046137234721396
0	704	35.2	0.046137234721396
0	705	35.234017603	0.046137234721396
0	706	35.3	0.046137234721396
0	708	35.4	0.046137234721396
0	710	35.5	0.046137234721396
0	712	35.6	0.046137234721396
0	714	35.7	0.046137234721396
0	715	35.746645504	0.046137234721396
0	716	35.8	0.046137234721396
0	718	35.9	0.046137234721396
0	720	36	0.046137234721396
0	722	36.1	0.046137234721396
0	724	36.2	0.046137234721396
0	725	36.207049087	0.046137234721396
0	726	36.3	0.046137234721396
0	728	36.4	0.046137234721396
0	729	36.430516048	0.046137234721396
0	730	36.5	0.046137234721396
0	732	36.6	0.046137234721396
0	734	36.7	0.046137234721396
0	736	36.8	0.046137234721396
0	738	36.9	0.046137234721396
0	739	36.932051323	0.046137234721396
0	740	37	0.046137234721396
0	742	37.1	0.046137234721396
0	744	37.2	0.046137234721396
0	746	37.3	0.046137234721396
0	748	37.4	0.046137234721396
0	749	37.42797415	0.046137234721396
0	750	37.5	0.046137234721396
0	752	37.6	0.045675862374182
0	752	37.6	0.045675862374182
0	754	37.7	0.045675862374182
0	756	37.8	0.045675862374182
0	757	37.813728847	0.045675862374182
0	758	37.9	0.045675862374182
0	760	38	0.045675862374182
0	762	38.1	0.045675862374182
0	764	38.2	0.045675862374182
0	765	38.218738036	0.045675862374182
0	766	38.3	0.045675862374182
0	768	38.4	0.045675862374182
0	770	38.5	0.045675862374182
0	772	38.6	0.045675862374182
0	774	38.7	0.045675862374182
0	775	38.774452327	0.045675862374182
0	776	38.8	0.045675862374182
0	778	38.9	0.045675862374182
0	780	39	0.04521910375044
0	780	39	0.04521910375044
0	782	39.1	0.04521910375044
0	784	39.2	0.04521910375044
0	786	39.3	0.04521910375044
0	787	39.376029454	0.04521910375044
0	788	39.4	0.04521910375044
0	790	39.5	0.04521910375044
0	792	39.6	0.04521910375044
0	794	39.7	0.04521910375044
0	796	39.8	0.04521910375044
0	798	39.9	0.04521910375044
0	799	39.958572517	0.04521910375044
0	800	40	0.04521910375044
0	802	40.1	0.04521910375044
0	804	40.2	0.04521910375044
0	806	40.3	0.04521910375044
0	808	40.4	0.04521910375044
0	810	40.5	0.044766912712936
0	810	40.5	0.044766912712936
0	811	40.544564161	0.044766912712936
0	812	40.6	0.044766912712936
0	814	40.7	0.044766912712936
0	816	40.8	0.044766912712936
0	818	40.9	0.044766912712936
0	820	41	0.044766912712936
0	822	41.1	0.044766912712936
0	823	41.195606269	0.044766912712936
0	824	41.2	0.044766912712936
0	826	41.3	0.044766912712936
0	828	41.4	0.044766912712936
0	830	41.5	0.044766912712936
0	832	41.6	0.044766912712936
0	834	41.7	0.044766912712936
0	835	41.743113829	0.044766912712936
0	836	41.8	0.044766912712936
0	838	41.9	0.044319243585806
0	838	41.9	0.044319243585806
0	840	42	0.044319243585806
0	842	42.1	0.044319243585806
0	844	42.2	0.044319243585806
0	845	42.283360003	0.044319243585806
0	846	42.3	0.044319243585806
0	848	42.4	0.044319243585806
0	850	42.5	0.044319243585806
0	852	42.6	0.044319243585806
0	854	42.7	0.044319243585806
0	856	42.8	0.044319243585806
0	857	42.876354628	0.044319243585806
0	858	42.9	0.044319243585806
0	860	43	0.044319243585806
0	862	43.1	0.044319243585806
0	864	43.2	0.044319243585806
0	866	43.3	0.044319243585806
0	868	43.4	0.043876051149948
0	868	43.4	0.043876051149948
0	869	43.440814183	0.043876051149948
0	870	43.5	0.043876051149948
0	872	43.6	0.043876051149948
0	874	43.7	0.043876051149948
0	876	43.8	0.043876051149948
0	878	43.9	0.043876051149948
0	880	44	0.043876051149948
0	882	44.1	0.043876051149948
0	883	44.1254731	0.043876051149948
0	884	44.2	0.043876051149948
0	886	44.3	0.043876051149948
0	888	44.4	0.043876051149948
0	890	44.5	0.043876051149948
0	892	44.6	0.043876051149948
0	894	44.7	0.043876051149948
0	895	44.731231516	0.043876051149948
0	896	44.8	0.043437290638449
0	896	44.8	0.043437290638449
0	898	44.9	0.043437290638449
0	900	45	0.043437290638449
0	902	45.1	0.043437290638449
0	904	45.2	0.043437290638449
0	906	45.3	0.043437290638449
0	907	45.366010528	0.043437290638449
0	908	45.4	0.043437290638449
0	910	45.5	0.043437290638449
0	912	45.6	0.043437290638449
0	914	45.7	0.043437290638449
0	916	45.8	0.043437290638449
0	918	45.9	0.043437290638449
0	919	45.97217359	0.043437290638449
0	920	46	0.043437290638449
0	922	46.1	0.043437290638449
0	924	46.2	0.043437290638449
0	926	46.3	0.043002917732064
0	926	46.3	0.043002917732064
0	928	46.4	0.043002917732064
0	930	46.5	0.043002917732064
0	932	46.6	0.043002917732064
0	933	46.684915045	0.043002917732064
0	934	46.7	0.043002917732064
0	936	46.8	0.043002917732064
0	938	46.9	0.043002917732064
0	941	47	0.043002917732064
0	943	47.1	0.043002917732064
0	945	47.2	0.043002917732064
0	946	47.240110159	0.043002917732064
0	947	47.3	0.043002917732064
0	949	47.4	0.043002917732064
0	951	47.5	0.043002917732064
0	953	47.6	0.043002917732064
0	955	47.7	0.043002917732064
0	957	47.8	0.043002917732064
0	958	47.883455482	0.043002917732064
0	959	47.9	0.043002917732064
0	961	48	0.043002917732064
0	963	48.1	0.043002917732064
0	965	48.2	0.043002917732064
0	967	48.3	0.043002917732064
0	969	48.4	0.043002917732064
0	971	48.5	0.043002917732064
0	972	48.542623054	0.043002917732064
0	973	48.6	0.043002917732064
0	975	48.7	0.043002917732064
0	977	48.8	0.043002917732064
0	979	48.9	0.043002917732064
0	981	49	0.043002917732064
0	983	49.1	0.043002917732064
0	984	49.14126499	0.042572888554744
0	984	49.14126499	0.042572888554744
0	985	49.2	0.042572888554744
0	987	49.3	0.042572888554744
0	989	49.4	0.042572888554744
0	991	49.5	0.042572888554744
0	993	49.6	0.042572888554744
0	994	49.634310052	0.042572888554744
0	995	49.7	0.042572888554744
0	997	49.8	0.042572888554744
0	999	49.9	0.042572888554744
0	1001	50	0.042572888554744
0	1003	50.1	0.042572888554744
0	1004	50.112451483	0.042572888554744
0	1005	50.2	0.042572888554744
0	1007	50.3	0.042572888554744
0	1008	50.357527795	0.042572888554744
0	1009	50.4	0.042572888554744
0	1011	50.5	0.042572888554744
0	1013	50.6	0.042572888554744
0	1014	50.648433103	0.042572888554744
0	1016	50.7	0.042572888554744
0	1018	50.8	0.042572888554744
0	1020	50.9	0.042572888554744
0	1022	51	0.042572888554744
0	1024	51.1	0.042572888554744
0	1024	51.118882516	0.042572888554744
0	1026	51.2	0.042572888554744
0	1028	51.3	0.042572888554744
0	1030	51.4	0.042572888554744
0	1032	51.5	0.042572888554744
0	1034	51.6	0.042572888554744
0	1034	51.683966341	0.042572888554744
0	1036	51.7	0.042572888554744
0	1038	51.8	0.042572888554744
0	1040	51.9	0.042147159669196
0	1040	51.9	0.042147159669196
0	1042	52	0.042147159669196
0	1044	52.1	0.042147159669196
0	1047	52.2	0.042147159669196
0	1047	52.21173385	0.042147159669196
0	1050	52.3	0.042147159669196
0	1052	52.4	0.042147159669196
0	1055	52.5	0.042147159669196
0	1057	52.6	0.042147159669196
0	1059	52.7	0.042147159669196
0	1059	52.715740306	0.042147159669196
0	1061	52.8	0.042147159669196
0	1063	52.9	0.042147159669196
0	1065	53	0.042147159669196
0	1067	53.1	0.042147159669196
0	1069	53.2	0.042147159669196
0	1069	53.210340502	0.042147159669196
0	1071	53.3	0.042147159669196
0	1073	53.4	0.042147159669196
0	1075	53.5	0.042147159669196
0	1077	53.6	0.042147159669196
0	1077	53.661197629	0.042147159669196
0	1079	53.7	0.042147159669196
0	1081	53.8	0.042147159669196
0	1083	53.9	0.042147159669196
0	1083	53.958775048	0.042147159669196
0	1085	54	0.042147159669196
0	1087	54.1	0.042147159669196
0	1089	54.2	0.042147159669196
0	1091	54.3	0.042147159669196
0	1093	54.4	0.042147159669196
0	1093	54.416944108	0.042147159669196
0	1095	54.5	0.042147159669196
0	1097	54.6	0.042147159669196
0	1097	54.678458248	0.042147159669196
0	1099	54.7	0.042147159669196
0	1101	54.8	0.042147159669196
0	1103	54.9	0.042147159669196
0	1105	55	0.042147159669196
0	1107	55.1	0.042147159669196
0	1107	55.170500851	0.042147159669196
0	1109	55.2	0.042147159669196
0	1111	55.3	0.042147159669196
0	1113	55.4	0.042147159669196
0	1113	55.455418891	0.042147159669196
0	1115	55.5	0.042147159669196
0	1117	55.6	0.042147159669196
0	1119	55.7	0.042147159669196
0	1121	55.8	0.042147159669196
0	1123	55.9	0.042147159669196
0	1123	55.960537681	0.042147159669196
0	1125	56	0.042147159669196
0	1127	56.1	0.042147159669196
0	1129	56.2	0.042147159669196
0	1131	56.3	0.042147159669196
0	1133	56.4	0.042147159669196
0	1133	56.426504698	0.042147159669196
0	1135	56.5	0.042147159669196
0	1137	56.6	0.042147159669196
0	1139	56.7	0.042147159669196
0	1140	56.769634267061	0.042147159669196
0	1142	56.869634267061	0.042147159669196
0	1143	56.895002104	0.042147159669196
0	1144	56.969634267061	0.042147159669196
0	1146	57.069634267061	0.042147159669196
0	1148	57.169634267061	0.042147159669196
0	1150	57.269634267061	0.042147159669196
0	1152	57.369634267061	0.041725688072504
0	1152	57.369634267061	0.041725688072504
0	1153	57.418740298	0.041725688072504
0	1154	57.469634267061	0.041725688072504
0	1156	57.569634267061	0.041725688072504
0	1158	57.669634267061	0.041725688072504
0	1160	57.769634267061	0.041725688072504
0	1162	57.869634267061	0.041725688072504
0	1163	57.895795645	0.041725688072504
0	1164	57.969634267061	0.041725688072504
0	1166	58.069634267061	0.041725688072504
0	1168	58.169634267061	0.041725688072504
0	1170	58.269634267061	0.041725688072504
0	1172	58.369634267061	0.041725688072504
0	1172	58.381697905	0.041725688072504
0	1174	58.469634267061	0.041725688072504
0	1176	58.569634267061	0.041725688072504
0	1178	58.669634267061	0.041725688072504
0	1180	58.769634267061	0.041308431191779
0	1180	58.769634267061	0.041308431191779
0	1182	58.869634267061	0.041308431191779
0	1184	58.969634267061	0.041308431191779
0	1185	59.02113295	0.041308431191779
0	1186	59.069634267061	0.041308431191779
0	1188	59.169634267061	0.041308431191779
0	1190	59.269634267061	0.041308431191779
0	1192	59.369634267061	0.041308431191779
0	1194	59.469634267061	0.041308431191779
0	1195	59.541357727	0.041308431191779
0	1196	59.569634267061	0.041308431191779
0	1198	59.669634267061	0.041308431191779
0	1200	59.769634267061	0.041308431191779
0	1202	59.869634267061	0.041308431191779
0	1204	59.969634267061	0.041308431191779
0	1205	59.986607185	0.041308431191779
0	1206	60.069634267061	0.041308431191779
0	1208	60.169634267061	0.040895346879862
0	1208	60.169634267061	0.040895346879862
0	1210	60.266322145261	0.040895346879862
0	1211	60.269634267061	0.040908595367062
0	1213	60.292485425296	0.041
0	1214	60.369634267061	0.04130859536706
0	1216	60.417485425296	0.0415
0	1217	60.469634267061	0.04170859536706
0	1218	60.510236137	0.041871002846816
0	1219	60.542485425296	0.042
0	1220	60.569634267061	0.04210859536706
0	1222	60.667485425296	0.0425
0	1223	60.669634267061	0.04250859536706
0	1225	60.769634267061	0.04290859536706
0	1227	60.792485425296	0.043
0	1228	60.869634267061	0.04330859536706
0	1230	60.917485425296	0.0435
0	1231	60.969634267061	0.04370859536706
0	1233	61.042485425296	0.044
0	1233	61.065012388	0.044090107850816
0	1234	61.069634267061	0.04410859536706
0	1236	61.167485425296	0.0445
0	1237	61.169634267061	0.04450859536706
0	1239	61.269634267061	0.04490859536706
0	1241	61.292485425296	0.045
0	1242	61.369634267061	0.04530859536706
0	1244	61.417485425296	0.0455
0	1245	61.469634267061	0.04570859536706
0	1247	61.542485425296	0.046
0	1248	61.569634267061	0.04610859536706
0	1250	61.667485425296	0.0465
0	1251	61.669634267061	0.04650859536706
0	1252	61.71486907	0.046689534578816
0	1253	61.769634267061	0.04690859536706
0	1255	61.792485425296	0.047
0	1256	61.869634267061	0.04730859536706
0	1258	61.917485425296	0.0475
0	1259	61.969634267061	0.04770859536706
0	1261	62.042485425296	0.048
0	1262	62.069634267061	0.04810859536706
0	1264	62.167485425296	0.0485
0	1265	62.169634267061	0.04850859536706
0	1267	62.269634267061	0.04890859536706
0	1269	62.292485425296	0.049
0	1269	62.301423256	0.049035751322816
0	1270	62.369634267061	0.04930859536706
0	1272	62.417485425296	0.0495
0	1273	62.469634267061	0.04970859536706
0	1275	62.542485425296	0.05
0	1276	62.569634267061	0.05
0	1278	62.669634267061	0.05
0	1280	62.769634267061	0.05
0	1281	62.848843216	0.05
0	1282	62.869634267061	0.05
0	1284	62.969634267061	0.05
0	1286	63.069634267061	0.05
0	1288	63.169634267061	0.05
0	1290	63.269634267061	0.05
0	1291	63.313512172	0.05
0	1292	63.369634267061	0.05
0	1294	63.469634267061	0.05
0	1296	63.569634267061	0.05
0	1298	63.669634267061	0.0495
0	1298	63.669634267061	0.0495
0	1300	63.769634267061	0.0499
0	1301	63.826067563	0.05
0	1302	63.869634267061	0.05
0	1304	63.969634267061	0.05
0	1306	64.069634267061	0.05
0	1308	64.169634267061	0.05
0	1310	64.269634267061	0.05
0	1311	64.31619664	0.05
0	1312	64.369634267061	0.05
0	1314	64.469634267061	0.05
0	1316	64.569634267061	0.05
0	1318	64.669634267061	0.05
0	1320	64.769634267061	0.05
0	1322	64.869634267061	0.05
0	1323	64.897586377	0.05
0	1324	64.969634267061	0.05
0	1326	65.069634267061	0.0495
0	1326	65.069634267061	0.0495
0	1328	65.169634267061	0.0499
0	1330	65.269634267061	0.05
0	1332	65.369634267061	0.05
0	1333	65.447622124	0.05
0	1334	65.469634267061	0.05
0	1336	65.569634267061	0.05
0	1338	65.669634267061	0.05
0	1340	65.769634267061	0.05
0	1342	65.869634267061	0.05
0	1343	65.892273505	0.05
0	1344	65.969634267061	0.05
0	1346	66.069634267061	0.05
0	1348	66.169634267061	0.05
0	1350	66.269634267061	0.05
0	1351	66.335361259	0.05
0	1352	66.369634267061	0.05
0	1354	66.469634267061	0.0495
0	1354	66.469634267061	0.0495
0	1356	66.569634267061	0.0499
0	1358	66.669634267061	0.05
0	1360	66.769634267061	0.05
0	1362	66.869634267061	0.05
0	1364	66.969634267061	0.05
0	1365	67.061311711	0.05
0	1366	67.069634267061	0.05
0	1368	67.169634267061	0.05
0	1370	67.269634267061	0.05
0	1372	67.369634267061	0.05
0	1374	67.469634267061	0.05
0	1376	67.569634267061	0.05
0	1377	67.662706798	0.05
0	1378	67.669634267061	0.05
0	1380	67.769634267061	0.05
0	1382	67.869634267061	0.05
0	1384	67.969634267061	0.0495
0	1384	67.969634267061	0.0495
0	1386	68.069634267061	0.0499
0	1388	68.169634267061	0.05
0	1391	68.269634267061	0.05
0	1392	68.303804371	0.05
0	1393	68.369634267061	0.05
0	1395	68.469634267061	0.05
0	1397	68.569634267061	0.05
0	1399	68.669634267061	0.05
0	1401	68.769634267061	0.05
0	1402	68.797116715	0.05
0	1403	68.869634267061	0.05
0	1405	68.969634267061	0.05
0	1407	69.069634267061	0.05
0	1409	69.169634267061	0.05
0	1410	69.231427672	0.05
0	1411	69.269634267061	0.05
0	1413	69.369634267061	0.05
0	1415	69.469634267061	0.05
0	1417	69.569634267061	0.05
0	1419	69.669634267061	0.05
0	1420	69.727431271	0.05
0	1421	69.769634267061	0.05
0	1423	69.869634267061	0.05
0	1425	69.969634267061	0.05
0	1427	70.069634267061	0.05
0	1429	70.169634267061	0.05
0	1430	70.22699941	0.05
0	1431	70.269634267061	0.05
0	1433	70.369634267061	0.05
0	1435	70.469634267061	0.05
0	1437	70.569634267061	0.05
0	1439	70.669634267061	0.05
0	1441	70.769634267061	0.05
0	1442	70.8497104	0.05
0	1443	70.869634267061	0.05
0	1445	70.969634267061	0.05
0	1447	71.069634267061	0.05
0	1449	71.169634267061	0.05
0	1451	71.269634267061	0.05
0	1453	71.369634267061	0.05
0	1455	71.469634267061	0.05
0	1456	71.519032729	0.05
0	1457	71.569634267061	0.05
0	1459	71.669634267061	0.05
0	1461	71.769634267061	0.05
0	1463	71.869634267061	0.05
0	1465	71.969634267061	0.05
0	1467	72.069634267061	0.05
0	1468	72.104423983	0.05
0	1469	72.169634267061	0.05
0	1471	72.269634267061	0.05
0	1473	72.369634267061	0.05
0	1475	72.469634267061	0.05
0	1477	72.569634267061	0.05
0	1478	72.611730211	0.05
0	1479	72.669634267061	0.05
0	1481	72.769634267061	0.05
0	1483	72.869634267061	0.05
0	1485	72.969634267061	0.05
0	1487	73.069634267061	0.05
0	1488	73.142975116	0.05
0	1489	73.169634267061	0.05
0	1491	73.269634267061	0.05
0	1493	73.369634267061	0.05
0	1495	73.469634267061	0.05
0	1497	73.569634267061	0.05
0	1497	73.579478146	0.05
0	1499	73.669634267061	0.05
0	1501	73.769634267061	0.05
0	1503	73.869634267061	0.05
0	1505	73.969634267061	0.05
0	1507	74.069634267061	0.05
0	1507	74.080527118	0.05
0	1509	74.169634267061	0.05
0	1511	74.269634267061	0.05
0	1513	74.369634267061	0.05
0	1515	74.469634267061	0.05
0	1516	74.518640869	0.05
0	1517	74.569634267061	0.05
0	1519	74.669634267061	0.05
0	1521	74.769634267061	0.05
0	1523	74.869634267061	0.05
0	1524	74.952538303	0.05
0	1525	74.969634267061	0.05
0	1527	75.069634267061	0.05
0	1529	75.169634267061	0.05
0	1531	75.269634267061	0.05
0	1533	75.369634267061	0.05
0	1535	75.469634267061	0.05
0	1535	75.483173812	0.05
0	1537	75.569634267061	0.05
0	1539	75.669634267061	0.05
0	1541	75.769634267061	0.05
0	1541	75.780026668	0.05
0	1543	75.869634267061	0.05
0	1545	75.969634267061	0.05
0	1547	76.069634267061	0.05
0	1549	76.169634267061	0.05
0	1549	76.177213501	0.05
0	1551	76.269634267061	0.05
0	1553	76.369634267061	0.05
0	1555	76.469634267061	0.05
0	1557	76.569634267061	0.05
0	1558	76.61016625	0.05
0	1559	76.669634267061	0.05
0	1561	76.769634267061	0.05
0	1563	76.869634267061	0.05
0	1565	76.969634267061	0.05
0	1566	77.018895652	0.05
0	1567	77.069634267061	0.05
0	1569	77.169634267061	0.05
0	1570	77.25745588	0.05
0	1571	77.269634267061	0.05
0	1573	77.369634267061	0.05
0	1575	77.469634267061	0.05
0	1577	77.569634267061	0.05
0	1579	77.669634267061	0.05
0	1580	77.705325322	0.0495
0	1580	77.705325322	0.0495
0	1581	77.769634267061	0.049757235780244
0	1583	77.869634267061	0.05
0	1585	77.969634267061	0.05
0	1587	78.069634267061	0.05
0	1589	78.169634267061	0.05
0	1589	78.182553403	0.05
0	1591	78.269634267061	0.05
0	1593	78.369634267061	0.05
0	1595	78.469634267061	0.05
0	1597	78.569634267061	0.05
0	1599	78.669634267061	0.05
0	1601	78.769634267061	0.05
0	1602	78.81842902	0.05
0	1603	78.869634267061	0.05
0	1605	78.969634267061	0.05
0	1607	79.069634267061	0.05
0	1609	79.169634267061	0.05
0	1611	79.269634267061	0.05
0	1612	79.367634202	0.05
0	1613	79.369634267061	0.05
0	1615	79.469634267061	0.05
0	1617	79.569634267061	0.05
0	1619	79.669634267061	0.05
0	1621	79.769634267061	0.05
0	1623	79.869634267061	0.05
0	1624	79.912087798	0.05
0	1625	79.969634267061	0.05
0	1627	80.069634267061	0.05
0	1629	80.169634267061	0.05
0	1631	80.269634267061	0.05
0	1633	80.369634267061	0.05
0	1635	80.469634267061	0.05
0	1637	80.569634267061	0.05
0	1638	80.607632818	0.0495
0	1638	80.607632818	0.0495
0	1639	80.669634267061	0.049748005796244
0	1641	80.769634267061	0.05
0	1643	80.869634267061	0.05
0	1645	80.969634267061	0.05
0	1647	81.069634267061	0.05
0	1649	81.169634267061	0.05
0	1649	81.175701178	0.05
0	1651	81.269634267061	0.05
0	1653	81.369634267061	0.05
0	1655	81.469634267061	0.05
0	1657	81.569634267061	0.05
0	1659	81.669634267061	0.05
0	1662	81.769634267061	0.05
0	1663	81.846005656	0.05
0	1664	81.869634267061	0.05
0	1666	81.969634267061	0.05
0	1668	82.069634267061	0.0495
0	1668	82.069634267061	0.0495
0	1670	82.169634267061	0.0499
0	1672	82.269634267061	0.05
0	1674	82.369634267061	0.05
0	1676	82.469634267061	0.05
0	1676	82.5118054	0.05
0	1678	82.569634267061	0.05
0	1680	82.669634267061	0.05
0	1682	82.769634267061	0.05
0	1684	82.869634267061	0.05
0	1685	82.951197652	0.05
0	1686	82.969634267061	0.05
0	1688	83.069634267061	0.05
0	1690	83.169634267061	0.05
0	1692	83.269634267061	0.05
0	1694	83.369634267061	0.05
0	1696	83.469634267061	0.05
0	1696	83.523286471	0.0495
0	1696	83.523286471	0.0495
0	1698	83.569634267061	0.049685391184244
0	1700	83.669634267061	0.05
0	1702	83.769634267061	0.05
0	1704	83.869634267061	0.05
0	1706	83.969634267061	0.05
0	1707	84.043664779	0.05
0	1708	84.069634267061	0.05
0	1710	84.169634267061	0.05
0	1712	84.269634267061	0.05
0	1714	84.369634267061	0.05
0	1716	84.469634267061	0.05
0	1718	84.569634267061	0.05
0	1718	84.572495047	0.05
0	1720	84.669634267061	0.05
0	1722	84.769634267061	0.05
0	1724	84.869634267061	0.05
0	1726	84.969634267061	0.0495
0	1726	84.969634267061	0.0495
0	1728	85.069634267061	0.0499
0	1728	85.117910482	0.05
0	1730	85.169634267061	0.05
0	1732	85.269634267061	0.05
0	1734	85.369634267061	0.05
0	1736	85.469634267061	0.05
0	1738	85.569634267061	0.05
0	1738	85.572025579	0.05
0	1740	85.669634267061	0.05
0	1742	85.769634267061	0.05
0	1744	85.869634267061	0.05
0	1746	85.969634267061	0.05
0	1747	86.050916269	0.05
0	1748	86.069634267061	0.05
0	1750	86.169634267061	0.05
0	1752	86.269634267061	0.05
0	1754	86.369634267061	0.0495
0	1754	86.369634267061	0.0495
0	1756	86.469634267061	0.0499
0	1758	86.569634267061	0.05
0	1758	86.584193197	0.05
0	1760	86.669634267061	0.05
0	1762	86.769634267061	0.05
0	1764	86.869634267061	0.05
0	1766	86.969634267061	0.05
0	1768	87.069634267061	0.05
0	1768	87.113083231	0.05
0	1770	87.169634267061	0.05
0	1772	87.269634267061	0.05
0	1774	87.369634267061	0.05
0	1776	87.469634267061	0.05
0	1778	87.569634267061	0.05
0	1778	87.570574285	0.05
0	1780	87.669634267061	0.05
0	1782	87.769634267061	0.0495
0	1782	87.769634267061	0.0495
0	1784	87.869634267061	0.0499
0	1786	87.969634267061	0.05
0	1788	88.069634267061	0.05
0	1790	88.169634267061	0.05
0	1790	88.171302004	0.05
0	1792	88.269634267061	0.05
0	1794	88.369634267061	0.05
0	1796	88.469634267061	0.05
0	1798	88.569634267061	0.05
0	1798	88.601904718	0.05
0	1800	88.669634267061	0.05
0	1802	88.769634267061	0.05
0	1803	88.864691824	0.05
0	1804	88.869634267061	0.05
0	1806	88.969634267061	0.05
0	1808	89.069634267061	0.05
0	1810	89.169634267061	0.0495
0	1810	89.169634267061	0.0495
0	1812	89.269634267061	0.0499
0	1812	89.329635376	0.05
0	1814	89.369634267061	0.05
0	1816	89.469634267061	0.05
0	1818	89.569634267061	0.05
0	1820	89.669634267061	0.05
0	1822	89.769634267061	0.05
0	1822	89.835215278	0.05
0	1824	89.869634267061	0.05
0	1826	89.969634267061	0.05
0	1828	90.069634267061	0.05
0	1830	90.169634267061	0.05
0	1830	90.236300968	0.05
0	1832	90.269634267061	0.05
0	1834	90.369634267061	0.05
0	1836	90.469634267061	0.05
0	1838	90.569634267061	0.0495
0	1838	90.569634267061	0.0495
0	1840	90.669634267061	0.0499
0	1840	90.715312912	0.05
0	1842	90.769634267061	0.05
0	1844	90.869634267061	0.05
0	1846	90.969634267061	0.05
0	1848	91.069634267061	0.05
0	1849	91.163543683	0.05
0	1850	91.169634267061	0.05
0	1852	91.269634267061	0.05
0	1854	91.369634267061	0.05
0	1856	91.469634267061	0.05
0	1858	91.569634267061	0.05
0	1860	91.669634267061	0.05
0	1860	91.703367442	0.05
0	1862	91.769634267061	0.05
0	1864	91.869634267061	0.05
0	1866	91.969634267061	0.0495
0	1866	91.969634267061	0.0495
0	1868	92.069634267061	0.0499
0	1870	92.169634267061	0.05
0	1872	92.269634267061	0.05
0	1872	92.279574241	0.05
0	1874	92.369634267061	0.05
0	1876	92.469634267061	0.05
0	1877	92.567393359	0.05
0	1878	92.569634267061	0.05
0	1880	92.669634267061	0.05
0	1882	92.769634267061	0.05
0	1884	92.869634267061	0.05
0	1886	92.969634267061	0.05
0	1888	93.069634267061	0.05
0	1888	93.075289693	0.05
0	1890	93.169634267061	0.05
0	1892	93.269634267061	0.05
0	1894	93.369634267061	0.0495
0	1894	93.369634267061	0.0495
0	1896	93.469634267061	0.0499
0	1898	93.569634267061	0.05
0	1899	93.649054309	0.05
0	1900	93.669634267061	0.05
0	1902	93.769634267061	0.05
0	1904	93.869634267061	0.05
0	1906	93.969634267061	0.05
0	1908	94.069634267061	0.05
0	1908	94.119833977	0.05
0	1910	94.169634267061	0.05
0	1912	94.269634267061	0.05
0	1913	94.307172671476	0.05
0	1915	94.407172671476	0.05
0	1917	94.507172671476	0.05
0	1918	94.606557232	0.05
0	1919	94.607172671476	0.05
0	1921	94.707172671476	0.05
0	1923	94.807172671476	0.05
0	1925	94.907172671476	0.05
0	1927	95.007172671476	0.05
0	1928	95.075810848	0.05
0	1929	95.107172671476	0.05
0	1931	95.207172671476	0.05
0	1933	95.307172671476	0.05
0	1935	95.407172671476	0.05
0	1937	95.507172671476	0.05
0	1937	95.51960038	0.05
0	1939	95.607172671476	0.05
0	1941	95.707172671476	0.05
0	1943	95.807172671476	0.05
0	1945	95.907172671476	0.05
0	1946	96.003821236	0.05
0	1947	96.007172671476	0.05
0	1949	96.107172671476	0.05
0	1951	96.207172671476	0.05
0	1953	96.307172671476	0.05
0	1955	96.407172671476	0.05
0	1957	96.507172671476	0.05
0	1957	96.512309842	0.05
0	1959	96.607172671476	0.05
0	1961	96.707172671476	0.05
0	1963	96.807172671476	0.05
0	1965	96.907172671476	0.05
0	1966	96.955726606	0.05
0	1967	97.007172671476	0.05
0	1969	97.107172671476	0.05
0	1971	97.207172671476	0.05
0	1973	97.307172671476	0.05
0	1975	97.407172671476	0.05
0	1977	97.507172671476	0.05
0	1977	97.525493185	0.05
0	1979	97.607172671476	0.05
0	1981	97.707172671476	0.05
0	1984	97.807172671476	0.05
0	1987	97.907172671476	0.05
0	1990	98.007172671476	0.05
0	1991	98.091626554	0.05
0	1992	98.107172671476	0.05
0	1995	98.207172671476	0.05
0	1998	98.307172671476	0.05
0	2001	98.407172671476	0.05
0	2004	98.507172671476	0.05
0	2005	98.583362731	0.05
0	2006	98.607172671476	0.05
0	2009	98.707172671476	0.05
0	2012	98.807172671476	0.05
0	2013	98.862595399	0.05
0	2015	98.907172671476	0.05
0	2018	99.007172671476	0.05
0	2020	99.107172671476	0.05
0	2022	99.207172671476	0.05
0	2024	99.307172671476	0.05
0	2025	99.35173294	0.05
0	2026	99.407172671476	0.05
0	2028	99.507172671476	0.05
0	2030	99.607172671476	0.05
0	2032	99.707172671476	0.05
0	2034	99.807172671476	0.05
0	2036	99.907172671476	0.05
0	2037	99.973311787	0.05
0	2038	100.007172671476	0.05
0	2040	100.107172671476	0.05
0	2042	100.207172671476	0.05
0	2044	100.307172671476	0.05
0	2045	100.403582992	0.05
0	2046	100.407172671476	0.05
0	2048	100.507172671476	0.05
0	2050	100.607172671476	0.05
0	2052	100.707172671476	0.05
0	2054	100.807172671476	0.05
0	2054	100.831912252	0.05
0	2056	100.907172671476	0.05
0	2058	101.007172671476	0.05
0	2060	101.107172671476	0.05
0	2062	101.207172671476	0.05
0	2062	101.221796986	0.05
0	2064	101.307172671476	0.0495
0	2064	101.307172671476	0.0495
0	2066	101.407172671476	0.0499
0	2067	101.479161304	0.05
0	2068	101.507172671476	0.05
0	2070	101.607172671476	0.05
0	2072	101.707172671476	0.05
0	2073	101.77512532	0.05
0	2074	101.807172671476	0.05
0	2076	101.907172671476	0.05
0	2078	102.007172671476	0.05
0	2080	102.107172671476	0.05
0	2082	102.207172671476	0.05
0	2082	102.2237395	0.05
0	2084	102.307172671476	0.05
0	2086	102.407172671476	0.05
0	2088	102.507172671476	0.05
0	2090	102.607172671476	0.05
0	2092	102.707172671476	0.0495
0	2092	102.707172671476	0.0495
0	2094	102.807172671476	0.0499
0	2095	102.87155266	0.05
0	2096	102.907172671476	0.05
0	2098	103.007172671476	0.05
0	2100	103.107172671476	0.05
0	2102	103.207172671476	0.05
0	2104	103.307172671476	0.05
0	2106	103.407172671476	0.05
0	2108	103.507172671476	0.05
0	2108	103.508590834	0.05
0	2110	103.607172671476	0.05
0	2112	103.707172671476	0.05
0	2114	103.807172671476	0.05
0	2116	103.907172671476	0.05
0	2118	104.007172671476	0.05
0	2119	104.096740534	0.05
0	2120	104.107172671476	0.0495
0	2120	104.107172671476	0.0495
0	2122	104.207172671476	0.0499
0	2124	104.307172671476	0.05
0	2126	104.407172671476	0.05
0	2128	104.507172671476	0.05
0	2130	104.607172671476	0.05
0	2132	104.707172671476	0.05
0	2133	104.755965151	0.05
0	2134	104.807172671476	0.05
0	2136	104.907172671476	0.05
0	2138	105.007172671476	0.05
0	2140	105.107172671476	0.05
0	2142	105.207172671476	0.05
0	2143	105.246455128	0.05
0	2144	105.307172671476	0.05
0	2146	105.407172671476	0.05
0	2148	105.507172671476	0.05
0	2148	105.54076657	0.0495
0	2148	105.54076657	0.0495
0	2150	105.607172671476	0.049765624405904
0	2152	105.707172671476	0.05
0	2154	105.807172671476	0.05
0	2156	105.907172671476	0.05
0	2158	106.007172671476	0.05
0	2158	106.034421574	0.05
0	2160	106.107172671476	0.05
0	2162	106.207172671476	0.05
0	2164	106.307172671476	0.05
0	2166	106.407172671476	0.05
0	2168	106.507172671476	0.05
0	2168	106.508210962	0.05
0	2170	106.607172671476	0.05
0	2172	106.707172671476	0.05
0	2174	106.807172671476	0.05
0	2176	106.907172671476	0.05
0	2177	106.967973985	0.05
0	2178	107.007172671476	0.05
0	2180	107.107172671476	0.05
0	2182	107.207172671476	0.05
0	2184	107.307172671476	0.05
0	2185	107.392239421	0.05
0	2186	107.407172671476	0.05
0	2188	107.507172671476	0.05
0	2190	107.607172671476	0.05
0	2192	107.707172671476	0.05
0	2194	107.807172671476	0.05
0	2194	107.827187785	0.05
0	2196	107.907172671476	0.05
0	2198	108.007172671476	0.05
0	2200	108.107172671476	0.05
0	2202	108.207172671476	0.05
0	2203	108.279860149	0.05
0	2204	108.307172671476	0.0495
0	2204	108.307172671476	0.0495
0	2206	108.407172671476	0.0499
0	2208	108.507172671476	0.05
0	2210	108.607172671476	0.05
0	2211	108.702362473	0.05
0	2212	108.707172671476	0.05
0	2214	108.807172671476	0.05
0	2216	108.907172671476	0.05
0	2218	109.007172671476	0.05
0	2220	109.107172671476	0.05
0	2221	109.176555397	0.05
0	2222	109.207172671476	0.05
0	2224	109.307172671476	0.05
0	2226	109.407172671476	0.05
0	2228	109.507172671476	0.05
0	2230	109.607172671476	0.05
0	2231	109.700347132	0.05
0	2232	109.707172671476	0.0495
0	2232	109.707172671476	0.0495
0	2234	109.807172671476	0.0499
0	2236	109.907172671476	0.05
0	2238	110.007172671476	0.05
0	2240	110.107172671476	0.05
0	2241	110.178736237	0.05
0	2242	110.207172671476	0.05
0	2244	110.307172671476	0.05
0	2246	110.407172671476	0.05
0	2248	110.507172671476	0.05
0	2250	110.607172671476	0.05
0	2251	110.645037586	0.05
0	2252	110.707172671476	0.05
0	2254	110.807172671476	0.05
0	2256	110.907172671476	0.05
0	2258	111.007172671476	0.05
0	2259	111.094933675	0.05
0	2260	111.107172671476	0.0495
0	2260	111.107172671476	0.0495
0	2262	111.207172671476	0.0499
0	2264	111.307172671476	0.05
0	2266	111.407172671476	0.05
0	2268	111.507172671476	0.05
0	2268	111.527499481	0.05
0	2270	111.607172671476	0.05
0	2272	111.707172671476	0.05
0	2274	111.807172671476	0.05
0	2276	111.907172671476	0.05
0	2278	112.007172671476	0.05
0	2278	112.021810096	0.05
0	2280	112.107172671476	0.05
0	2282	112.207172671476	0.05
0	2284	112.307172671476	0.05
0	2286	112.407172671476	0.05
0	2288	112.507172671476	0.05
0	2289	112.581717601	0.05
0	2290	112.607172671476	0.05
0	2292	112.707172671476	0.05
0	2294	112.807172671476	0.05
0	2296	112.907172671476	0.05
0	2298	113.007172671476	0.05
0	2299	113.051613346	0.05
0	2300	113.107172671476	0.05
0	2302	113.207172671476	0.05
0	2304	113.307172671476	0.05
0	2306	113.407172671476	0.05
0	2308	113.507172671476	0.05
0	2309	113.550180187	0.05
0	2310	113.607172671476	0.05
0	2312	113.707172671476	0.05
0	2314	113.807172671476	0.05
0	2316	113.907172671476	0.05
0	2318	114.007172671476	0.0495
0	2318	114.007172671476	0.0495
0	2318	114.023728468	0.049566223186096
0	2320	114.107172671476	0.0499
0	2322	114.207172671476	0.05
0	2324	114.307172671476	0.05
0	2326	114.407172671476	0.05
0	2328	114.507172671476	0.05
0	2329	114.552084328	0.05
0	2330	114.607172671476	0.05
0	2332	114.707172671476	0.05
0	2334	114.807172671476	0.05
0	2336	114.907172671476	0.05
0	2337	115.00321741	0.05
0	2338	115.007172671476	0.05
0	2340	115.107172671476	0.05
0	2342	115.207172671476	0.05
0	2344	115.307172671476	0.05
0	2346	115.407172671476	0.0495
0	2346	115.407172671476	0.0495
0	2346	115.440119857	0.049631788742096
0	2348	115.507172671476	0.0499
0	2350	115.607172671476	0.05
0	2352	115.707172671476	0.05
0	2355	115.807172671476	0.05
0	2355	115.873844407	0.05
0	2357	115.907172671476	0.05
0	2359	116.007172671476	0.05
0	2361	116.107172671476	0.05
0	2363	116.207172671476	0.05
0	2365	116.307172671476	0.05
0	2367	116.407172671476	0.05
0	2369	116.507172671476	0.05
0	2369	116.563493506	0.05
0	2371	116.607172671476	0.05
0	2373	116.707172671476	0.05
0	2375	116.807172671476	0.05
0	2377	116.907172671476	0.05
0	2377	116.975617162	0.05
0	2379	117.007172671476	0.05
0	2381	117.107172671476	0.05
0	2383	117.207172671476	0.05
0	2385	117.307172671476	0.05
0	2387	117.407172671476	0.05
0	2388	117.480293926	0.05
0	2389	117.507172671476	0.05
0	2391	117.607172671476	0.05
0	2393	117.707172671476	0.05
0	2395	117.807172671476	0.05
0	2397	117.907172671476	0.05
0	2398	118.002582871	0.05
0	2399	118.007172671476	0.05
0	2401	118.107172671476	0.05
0	2403	118.207172671476	0.05
0	2405	118.307172671476	0.05
0	2407	118.407172671476	0.05
0	2407	118.45379137	0.05
0	2409	118.507172671476	0.05
0	2411	118.607172671476	0.05
0	2413	118.707172671476	0.05
0	2415	118.807172671476	0.05
0	2415	118.870794238	0.05
0	2417	118.907172671476	0.05
0	2419	119.007172671476	0.05
0	2421	119.107172671476	0.05
0	2423	119.207172671476	0.05
0	2424	119.292310942	0.05
0	2425	119.302163551661	0.05
0	2427	119.402163551661	0.05
0	2429	119.502163551661	0.05
0	2431	119.602163551661	0.05
0	2433	119.702163551661	0.05
0	2435	119.802163551661	0.05
0	2435	119.816027485	0.05
0	2437	119.902163551661	0.05
0	2439	120.002163551661	0.05
0	2441	120.102163551661	0.05
0	2443	120.202163551661	0.05
0	2443	120.259633009	0.05
0	2445	120.302163551661	0.05
0	2447	120.402163551661	0.05
0	2449	120.502163551661	0.05
0	2451	120.602163551661	0.05
0	2453	120.702163551661	0.05
0	2453	120.711872584	0.05
0	2455	120.802163551661	0.05
0	2457	120.902163551661	0.05
0	2459	121.002163551661	0.05
0	2461	121.102163551661	0.05
0	2461	121.173191617	0.05
0	2463	121.202163551661	0.05
0	2465	121.302163551661	0.05
0	2467	121.402163551661	0.05
0	2469	121.502163551661	0.05
0	2471	121.602163551661	0.05
0	2473	121.702163551661	0.05
0	2475	121.802163551661	0.05
0	2476	121.880865103	0.05
0	2477	121.902163551661	0.05
0	2479	122.002163551661	0.05
0	2481	122.102163551661	0.05
0	2483	122.202163551661	0.05
0	2485	122.302163551661	0.05
0	2487	122.402163551661	0.05
0	2489	122.502163551661	0.05
0	2489	122.53230484	0.05
0	2491	122.602163551661	0.05
0	2493	122.702163551661	0.05
0	2495	122.802163551661	0.05
0	2497	122.902163551661	0.05
0	2499	123.002163551661	0.05
0	2501	123.102163551661	0.05
0	2502	123.184068025	0.05
0	2503	123.202163551661	0.05
0	2505	123.302163551661	0.05
0	2507	123.402163551661	0.05
0	2509	123.502163551661	0.05
0	2511	123.602163551661	0.05
0	2513	123.702163551661	0.05
0	2513	123.76502533	0.05
0	2515	123.802163551661	0.05
0	2517	123.902163551661	0.05
0	2519	124.002163551661	0.05
0	2521	124.102163551661	0.05
0	2523	124.202163551661	0.05
0	2525	124.302163551661	0.05
0	2525	124.358545909	0.05
0	2527	124.402163551661	0.05
0	2529	124.502163551661	0.05
0	2531	124.602163551661	0.05
0	2533	124.702163551661	0.05
0	2535	124.802163551661	0.05
0	2536	124.89413278	0.05
0	2537	124.902163551661	0.05
0	2539	125.002163551661	0.05
0	2541	125.102163551661	0.05
0	2543	125.202163551661	0.05
0	2545	125.302163551661	0.05
0	2547	125.402163551661	0.05
0	2548	125.491641325	0.05
0	2549	125.502163551661	0.05
0	2551	125.602163551661	0.05
0	2553	125.702163551661	0.05
0	2555	125.802163551661	0.05
0	2557	125.902163551661	0.05
0	2559	126.002163551661	0.05
0	2559	126.058919101	0.05
0	2561	126.102163551661	0.05
0	2563	126.202163551661	0.05
0	2565	126.302163551661	0.05
0	2567	126.402163551661	0.05
0	2569	126.502163551661	0.05
0	2569	126.531285928	0.05
0	2571	126.602163551661	0.05
0	2573	126.702163551661	0.05
0	2575	126.802163551661	0.05
0	2575	126.813863014	0.05
0	2577	126.902163551661	0.05
0	2579	127.002163551661	0.05
0	2581	127.102163551661	0.05
0	2583	127.202163551661	0.05
0	2585	127.302163551661	0.05
0	2586	127.401958501	0.05
0	2587	127.402163551661	0.05
0	2589	127.502163551661	0.05
0	2591	127.602163551661	0.05
0	2593	127.702163551661	0.05
0	2595	127.802163551661	0.05
0	2595	127.830306289	0.05
0	2597	127.902163551661	0.05
0	2599	128.002163551661	0.05
0	2601	128.102163551661	0.05
0	2603	128.202163551661	0.05
0	2605	128.302163551661	0.05
0	2607	128.402163551661	0.05
0	2607	128.468425264	0.05
0	2609	128.502163551661	0.05
0	2611	128.602163551661	0.05
0	2613	128.702163551661	0.05
0	2615	128.802163551661	0.05
0	2617	128.902163551661	0.05
0	2618	128.997812614	0.05
0	2619	129.002163551661	0.05
0	2621	129.102163551661	0.05
0	2623	129.202163551661	0.05
0	2625	129.302163551661	0.05
0	2627	129.402163551661	0.05
0	2629	129.502163551661	0.05
0	2630	129.582251848	0.0495
0	2630	129.582251848	0.0495
0	2631	129.602163551661	0.049579646814644
0	2633	129.702163551661	0.049979646814644
0	2635	129.802163551661	0.05
0	2637	129.902163551661	0.05
0	2639	130.002163551661	0.05
0	2641	130.102163551661	0.05
0	2641	130.135911886	0.05
0	2643	130.202163551661	0.05
0	2645	130.302163551661	0.05
0	2647	130.402163551661	0.05
0	2649	130.502163551661	0.05
0	2651	130.602163551661	0.05
0	2653	130.702163551661	0.05
0	2654	130.783309783	0.05
0	2655	130.802163551661	0.05
0	2657	130.902163551661	0.05
0	2659	131.002163551661	0.05
0	2661	131.102163551661	0.05
0	2663	131.202163551661	0.05
0	2665	131.302163551661	0.05
0	2667	131.402163551661	0.05
0	2667	131.439180385	0.05
0	2669	131.502163551661	0.05
0	2671	131.602163551661	0.05
0	2673	131.702163551661	0.05
0	2675	131.802163551661	0.05
0	2677	131.902163551661	0.05
0	2679	132.002163551661	0.05
0	2679	132.057210421	0.05
0	2681	132.102163551661	0.05
0	2683	132.202163551661	0.05
0	2685	132.302163551661	0.05
0	2687	132.402163551661	0.05
0	2689	132.502163551661	0.05
0	2689	132.534419218	0.05
0	2691	132.602163551661	0.05
0	2693	132.702163551661	0.05
0	2695	132.802163551661	0.05
0	2697	132.902163551661	0.05
0	2699	133.002163551661	0.05
0	2699	133.043254519	0.05
0	2701	133.102163551661	0.05
0	2703	133.202163551661	0.05
0	2705	133.302163551661	0.05
0	2707	133.402163551661	0.05
0	2709	133.502163551661	0.05
0	2711	133.602163551661	0.05
0	2711	133.619074129	0.05
0	2713	133.702163551661	0.05
0	2715	133.802163551661	0.05
0	2717	133.902163551661	0.05
0	2719	134.002163551661	0.05
0	2721	134.102163551661	0.05
0	2723	134.202163551661	0.05
0	2724	134.286716335	0.05
0	2725	134.302163551661	0.05
0	2727	134.402163551661	0.05
0	2729	134.502163551661	0.05
0	2731	134.602163551661	0.05
0	2733	134.702163551661	0.05
0	2733	134.774399971	0.05
0	2735	134.802163551661	0.05
0	2737	134.902163551661	0.05
0	2739	135.002163551661	0.05
0	2741	135.102163551661	0.05
0	2743	135.202163551661	0.05
0	2745	135.302163551661	0.05
0	2745	135.37366801	0.05
0	2747	135.402163551661	0.05
0	2749	135.502163551661	0.05
0	2751	135.602163551661	0.05
0	2753	135.702163551661	0.05
0	2755	135.802163551661	0.05
0	2755	135.833412478	0.05
0	2757	135.902163551661	0.05
0	2759	136.002163551661	0.05
0	2762	136.102163551661	0.05
0	2764	136.202163551661	0.05
0	2764	136.268232424	0.05
0	2766	136.302163551661	0.05
0	2768	136.402163551661	0.05
0	2770	136.502163551661	0.05
0	2770	136.548397963	0.05
0	2772	136.602163551661	0.05
0	2774	136.702163551661	0.0495
0	2774	136.702163551661	0.0495
0	2776	136.802163551661	0.0499
0	2778	136.902163551661	0.05
0	2780	137.002163551661	0.05
0	2782	137.102163551661	0.05
0	2784	137.202163551661	0.05
0	2784	137.205496243	0.05
0	2786	137.302163551661	0.05
0	2788	137.402163551661	0.05
0	2790	137.502163551661	0.05
0	2792	137.602163551661	0.05
0	2794	137.702163551661	0.05
0	2794	137.708709502	0.05
0	2796	137.802163551661	0.05
0	2798	137.902163551661	0.05
0	2800	138.002163551661	0.05
0	2802	138.102163551661	0.05
0	2803	138.199187383	0.05
0	2804	138.202163551661	0.05
0	2806	138.302163551661	0.05
0	2808	138.402163551661	0.05
0	2810	138.502163551661	0.05
0	2811	138.595397596	0.05
0	2812	138.602163551661	0.05
0	2814	138.702163551661	0.05
0	2816	138.802163551661	0.05
0	2818	138.902163551661	0.05
0	2820	139.002163551661	0.05
0	2820	139.03660291	0.05
0	2822	139.102163551661	0.05
0	2824	139.202163551661	0.05
0	2826	139.302163551661	0.05
0	2828	139.402163551661	0.05
0	2830	139.502163551661	0.05
0	2830	139.550692522	0.0495
0	2830	139.550692522	0.0495
0	2832	139.602163551661	0.049705884118644
0	2834	139.702163551661	0.05
0	2836	139.802163551661	0.05
0	2838	139.902163551661	0.05
0	2840	140.002163551661	0.05
0	2840	140.045205964	0.05
0	2842	140.102163551661	0.05
0	2844	140.202163551661	0.05
0	2846	140.302163551661	0.05
0	2848	140.402163551661	0.05
0	2850	140.502163551661	0.05
0	2850	140.549319139	0.05
0	2852	140.602163551661	0.05
0	2854	140.702163551661	0.05
0	2856	140.802163551661	0.05
0	2858	140.902163551661	0.05
0	2860	141.002163551661	0.0495
0	2860	141.002163551661	0.0495
0	2861	141.083523658	0.049825440425356
0	2862	141.102163551661	0.0499
0	2864	141.202163551661	0.05
0	2866	141.302163551661	0.05
0	2868	141.402163551661	0.05
0	2870	141.502163551661	0.05
0	2872	141.602163551661	0.05
0	2872	141.667106029	0.05
0	2874	141.702163551661	0.05
0	2876	141.802163551661	0.05
0	2878	141.902163551661	0.05
0	2880	142.002163551661	0.05
0	2882	142.102163551661	0.05
0	2882	142.112487415	0.05
0	2884	142.202163551661	0.05
0	2886	142.302163551661	0.05
0	2888	142.402163551661	0.0495
0	2888	142.402163551661	0.0495
0	2890	142.502163551661	0.0499
0	2892	142.602163551661	0.05
0	2892	142.630899664	0.05
0	2894	142.702163551661	0.05
0	2896	142.802163551661	0.05
0	2898	142.902163551661	0.05
0	2900	143.002163551661	0.05
0	2902	143.102163551661	0.05
0	2902	143.146438087	0.05
0	2904	143.202163551661	0.05
0	2906	143.302163551661	0.05
0	2908	143.402163551661	0.05
0	2910	143.502163551661	0.05
0	2912	143.602163551661	0.05
0	2912	143.616188068	0.05
0	2914	143.702163551661	0.05
0	2916	143.802163551661	0.0495
0	2916	143.802163551661	0.0495
0	2918	143.902163551661	0.0499
0	2920	144.002163551661	0.05
0	2922	144.102163551661	0.05
0	2924	144.202163551661	0.05
0	2924	144.249103492	0.05
0	2926	144.302163551661	0.05
0	2928	144.402163551661	0.05
0	2930	144.502163551661	0.05
0	2932	144.602163551661	0.05
0	2934	144.702163551661	0.05
0	2934	144.715368559	0.05
0	2936	144.802163551661	0.05
0	2938	144.902163551661	0.05
0	2940	145.002163551661	0.05
0	2942	145.102163551661	0.05
0	2944	145.202163551661	0.05
0	2944	145.221784336	0.0495
0	2944	145.221784336	0.0495
0	2946	145.302163551661	0.049821516862644
0	2948	145.402163551661	0.05
0	2950	145.502163551661	0.05
0	2952	145.602163551661	0.05
0	2954	145.702163551661	0.05
0	2954	145.713996178	0.05
0	2956	145.802163551661	0.05
0	2958	145.902163551661	0.05
0	2960	146.002163551661	0.05
0	2962	146.102163551661	0.05
0	2964	146.202163551661	0.05
0	2964	146.259101218	0.05
0	2966	146.302163551661	0.05
0	2968	146.402163551661	0.05
0	2970	146.502163551661	0.05
0	2972	146.602163551661	0.05
0	2974	146.702163551661	0.0495
0	2974	146.702163551661	0.0495
0	2974	146.761951744	0.049739152769356
0	2976	146.802163551661	0.0499
0	2978	146.902163551661	0.05
0	2980	147.002163551661	0.05
0	2982	147.102163551661	0.05
0	2984	147.202163551661	0.05
0	2984	147.214040557	0.05
0	2986	147.302163551661	0.05
0	2988	147.402163551661	0.05
0	2990	147.502163551661	0.05
0	2992	147.602163551661	0.05
0	2994	147.702163551661	0.05
0	2994	147.734415241	0.05
0	2996	147.802163551661	0.05
0	2998	147.902163551661	0.05
0	3000	148.002163551661	0.05
0	3002	148.102163551661	0.0495
0	3002	148.102163551661	0.0495
0	3004	148.202163551661	0.0499
0	3004	148.276600336	0.05
0	3006	148.302163551661	0.05
0	3008	148.402163551661	0.05
0	3010	148.502163551661	0.05
0	3012	148.602163551661	0.05
0	3014	148.702163551661	0.05
0	3016	148.802163551661	0.05
0	3018	148.902163551661	0.05
0	3018	148.976212531	0.05
0	3020	149.002163551661	0.05
0	3022	149.102163551661	0.05
0	3024	149.202163551661	0.05
0	3026	149.302163551661	0.05
0	3028	149.402163551661	0.05
0	3030	149.502163551661	0.05
0	3032	149.602163551661	0.0495
0	3032	149.602163551661	0.0495
0	3032	149.604689011	0.049510101837356
0	3034	149.702163551661	0.0499
0	3036	149.802163551661	0.05
0	3038	149.902163551661	0.05
0	3040	150.002163551661	0.05
0	3042	150.102163551661	0.05
0	3045	150.202163551661	0.05
0	3045	150.256321753	0.05
0	3048	150.302163551661	0.05
0	3050	150.402163551661	0.05
0	3052	150.502163551661	0.05
0	3054	150.602163551661	0.05
0	3056	150.702163551661	0.05
0	3058	150.802163551661	0.05
0	3060	150.902163551661	0.05
0	3060	150.958939951	0.0495
0	3060	150.958939951	0.0495
0	3062	151.002163551661	0.049672894402644
0	3064	151.102163551661	0.05
0	3066	151.202163551661	0.05
0	3068	151.302163551661	0.05
0	3070	151.402163551661	0.05
0	3072	151.502163551661	0.05
0	3074	151.602163551661	0.05
0	3074	151.667861923	0.05
0	3076	151.702163551661	0.05
0	3078	151.802163551661	0.05
0	3080	151.902163551661	0.05
0	3082	152.002163551661	0.05
0	3084	152.102163551661	0.05
0	3086	152.202163551661	0.05
0	3088	152.302163551661	0.05
0	3088	152.343467851	0.05
0	3090	152.402163551661	0.0495
0	3090	152.402163551661	0.0495
0	3092	152.502163551661	0.0499
0	3094	152.602163551661	0.05
0	3096	152.702163551661	0.05
0	3098	152.802163551661	0.05
0	3099	152.883182461	0.05
0	3100	152.902163551661	0.05
0	3102	153.002163551661	0.05
0	3104	153.102163551661	0.05
0	3106	153.202163551661	0.05
0	3108	153.302163551661	0.05
0	3108	153.375910888	0.05
0	3110	153.402163551661	0.05
0	3112	153.502163551661	0.05
0	3114	153.602163551661	0.05
0	3116	153.702163551661	0.05
0	3118	153.802163551661	0.05
0	3120	153.902163551661	0.0495
0	3120	153.902163551661	0.0495
0	3120	153.975452695	0.049793156573356
0	3122	154.002163551661	0.0499
0	3125	154.102163551661	0.05
0	3127	154.202163551661	0.05
0	3129	154.302163551661	0.05
0	3131	154.402163551661	0.05
0	3131	154.465640236	0.05
0	3133	154.502163551661	0.05
0	3135	154.602163551661	0.05
0	3137	154.702163551661	0.05
0	3139	154.802163551661	0.05
0	3141	154.902163551661	0.05
0	3141	154.925735407	0.05
0	3143	155.002163551661	0.05
0	3145	155.102163551661	0.05
0	3147	155.202163551661	0.05
0	3149	155.302163551661	0.05
0	3151	155.402163551661	0.05
0	3153	155.502163551661	0.05
0	3153	155.504185699	0.05
0	3155	155.602163551661	0.05
0	3157	155.702163551661	0.05
0	3159	155.802163551661	0.05
0	3161	155.902163551661	0.05
0	3162	155.998378783	0.05
0	3163	156.002163551661	0.05
0	3165	156.102163551661	0.05
0	3167	156.202163551661	0.05
0	3169	156.302163551661	0.05
0	3170	156.31422973188	0.05
0	3172	156.402163551661	0.05
0	3173	156.496456177	0.05
0	3174	156.502163551661	0.05
0	3176	156.602163551661	0.0495
0	3176	156.602163551661	0.0495
0	3178	156.702163551661	0.0495
0	3180	156.802163551661	0.0495
0	3182	156.902163551661	0.0495
0	3183	156.985428355	0.0495
0	3184	157.002163551661	0.0495
0	3187	157.102163551661	0.0495
0	3190	157.202163551661	0.0495
0	3192	157.302163551661	0.0495
0	3194	157.402163551661	0.0495
0	3196	157.502163551661	0.0495
0	3196	157.504356349	0.0495
0	3198	157.602163551661	0.0495
0	3200	157.702163551661	0.0495
0	3202	157.802163551661	0.0495
0	3204	157.902163551661	0.0495
0	3206	158.002163551661	0.049005
0	3206	158.002163551661	0.049005
0	3206	158.0351638	0.049005
0	3208	158.102163551661	0.049005
0	3210	158.202163551661	0.049005
0	3212	158.302163551661	0.049005
0	3214	158.402163551661	0.049005
0	3216	158.502163551661	0.049005
0	3216	158.565747856	0.049005
0	3218	158.602163551661	0.049005
0	3220	158.702163551661	0.049005
0	3222	158.802163551661	0.049005
0	3224	158.902163551661	0.049005
0	3226	159.002163551661	0.049005
0	3228	159.102163551661	0.049005
0	3230	159.202163551661	0.049005
0	3232	159.302163551661	0.049005
0	3232	159.342980185	0.049005
0	3234	159.402163551661	0.04851495
0	3234	159.402163551661	0.04851495
0	3236	159.502163551661	0.04851495
0	3238	159.602163551661	0.04851495
0	3240	159.702163551661	0.04851495
0	3242	159.802163551661	0.04851495
0	3243	159.898037677	0.04851495
0	3244	159.902163551661	0.04851495
0	3246	160.002163551661	0.04851495
0	3248	160.102163551661	0.04851495
0	3251	160.202163551661	0.04851495
0	3253	160.302163551661	0.04851495
0	3253	160.331829967	0.04851495
0	3255	160.402163551661	0.04851495
0	3257	160.502163551661	0.04851495
0	3259	160.602163551661	0.04851495
0	3261	160.702163551661	0.04851495
0	3263	160.802163551661	0.04851495
0	3265	160.902163551661	0.04851495
0	3265	160.937129758	0.04851495
0	3267	161.002163551661	0.04851495
0	3269	161.102163551661	0.04851495
0	3271	161.202163551661	0.04851495
0	3273	161.302163551661	0.04851495
0	3275	161.402163551661	0.04851495
0	3275	161.465316574	0.04851495
0	3277	161.502163551661	0.04851495
0	3279	161.602163551661	0.04851495
0	3281	161.702163551661	0.04851495
0	3283	161.802163551661	0.04851495
0	3285	161.902163551661	0.04851495
0	3286	161.994988504	0.04851495
0	3287	162.002163551661	0.04851495
0	3289	162.102163551661	0.04851495
0	3291	162.202163551661	0.04851495
0	3293	162.302163551661	0.04851495
0	3295	162.402163551661	0.04851495
0	3296	162.480143722	0.04851495
0	3297	162.502163551661	0.04851495
0	3299	162.602163551661	0.04851495
0	3301	162.702163551661	0.04851495
0	3303	162.802163551661	0.04851495
0	3303	162.877016131	0.04851495
0	3305	162.902163551661	0.04851495
0	3307	163.002163551661	0.04851495
0	3309	163.102163551661	0.04851495
0	3309	163.168374247	0.04851495
0	3311	163.185828527586	0.04851495
0	3313	163.285828527586	0.04851495
0	3315	163.385828527586	0.04851495
0	3317	163.485828527586	0.04851495
0	3319	163.585828527586	0.04851495
0	3321	163.685828527586	0.04851495
0	3321	163.743321754	0.04851495
0	3323	163.785828527586	0.04851495
0	3325	163.885828527586	0.04851495
0	3327	163.985828527586	0.04851495
0	3329	164.085828527586	0.04851495
0	3331	164.185828527586	0.04851495
0	3331	164.199742564	0.04851495
0	3333	164.285828527586	0.04851495
0	3335	164.385828527586	0.04851495
0	3337	164.485828527586	0.04851495
0	3339	164.585828527586	0.04851495
0	3339	164.614672882	0.04851495
0	3341	164.685828527586	0.04851495
0	3343	164.785828527586	0.04851495
0	3345	164.885828527586	0.04851495
0	3347	164.985828527586	0.04851495
0	3349	165.085828527586	0.04851495
0	3351	165.185828527586	0.04851495
0	3351	165.224022361	0.04851495
0	3353	165.285828527586	0.04851495
0	3355	165.385828527586	0.04851495
0	3357	165.485828527586	0.04851495
0	3359	165.585828527586	0.04851495
0	3361	165.685828527586	0.04851495
0	3363	165.785828527586	0.04851495
0	3363	165.792732877	0.04851495
0	3365	165.885828527586	0.04851495
0	3367	165.985828527586	0.04851495
0	3369	166.085828527586	0.04851495
0	3371	166.185828527586	0.04851495
0	3371	166.194274285	0.04851495
0	3373	166.285828527586	0.04851495
0	3375	166.385828527586	0.04851495
0	3377	166.485828527586	0.04851495
0	3379	166.585828527586	0.04851495
0	3380	166.681372159	0.04851495
0	3381	166.685828527586	0.04851495
0	3383	166.785828527586	0.04851495
0	3385	166.885828527586	0.04851495
0	3387	166.985828527586	0.04851495
0	3389	167.085828527586	0.04851495
0	3389	167.103320743	0.04851495
0	3391	167.185828527586	0.04851495
0	3393	167.285828527586	0.04851495
0	3395	167.385828527586	0.04851495
0	3397	167.485828527586	0.04851495
0	3397	167.553763261	0.04851495
0	3399	167.585828527586	0.04851495
0	3401	167.685828527586	0.04851495
0	3403	167.785828527586	0.04851495
0	3405	167.885828527586	0.04851495
0	3407	167.985828527586	0.04851495
0	3407	167.996818864	0.04851495
0	3409	168.085828527586	0.04851495
0	3411	168.185828527586	0.04851495
0	3413	168.285828527586	0.04851495
0	3415	168.385828527586	0.04851495
0	3415	168.448810756	0.04851495
0	3417	168.485828527586	0.04851495
0	3419	168.585828527586	0.04851495
0	3421	168.685828527586	0.04851495
0	3423	168.785828527586	0.04851495
0	3425	168.885828527586	0.04851495
0	3425	168.939070294	0.04851495
0	3427	168.985828527586	0.04851495
0	3429	169.085828527586	0.04851495
0	3431	169.185828527586	0.04851495
0	3433	169.285828527586	0.04851495
0	3435	169.385828527586	0.04851495
0	3435	169.405440091	0.04851495
0	3437	169.485828527586	0.04851495
0	3439	169.585828527586	0.04851495
0	3441	169.685828527586	0.04851495
0	3443	169.785828527586	0.04851495
0	3444	169.8682063	0.04851495
0	3445	169.885828527586	0.04851495
0	3447	169.985828527586	0.04851495
0	3449	170.085828527586	0.04851495
0	3451	170.185828527586	0.04851495
0	3453	170.285828527586	0.04851495
0	3453	170.329698811	0.04851495
0	3455	170.385828527586	0.04851495
0	3457	170.485828527586	0.04851495
0	3459	170.585828527586	0.04851495
0	3461	170.685828527586	0.04851495
0	3463	170.785828527586	0.04851495
0	3463	170.854435351	0.04851495
0	3465	170.885828527586	0.04851495
0	3467	170.985828527586	0.04851495
0	3469	171.085828527586	0.04851495
0	3469	171.108529558	0.04851495
0	3471	171.185828527586	0.04851495
0	3473	171.285828527586	0.04851495
0	3475	171.385828527586	0.04851495
0	3477	171.485828527586	0.04851495
0	3479	171.585828527586	0.04851495
0	3481	171.685828527586	0.04851495
0	3483	171.785828527586	0.04851495
0	3483	171.808878796	0.04851495
0	3485	171.885828527586	0.04851495
0	3487	171.985828527586	0.04851495
0	3489	172.085828527586	0.04851495
0	3491	172.185828527586	0.04851495
0	3493	172.285828527586	0.04851495
0	3495	172.385828527586	0.04851495
0	3497	172.485828527586	0.04851495
0	3499	172.585828527586	0.04851495
0	3501	172.685828527586	0.04851495
0	3501	172.735395808	0.04851495
0	3503	172.785828527586	0.04851495
0	3505	172.885828527586	0.04851495
0	3507	172.985828527586	0.04851495
0	3509	173.085828527586	0.04851495
0	3511	173.185828527586	0.04851495
0	3513	173.285828527586	0.04851495
0	3513	173.363527057	0.04851495
0	3515	173.385828527586	0.04851495
0	3517	173.485828527586	0.04851495
0	3519	173.585828527586	0.04851495
0	3521	173.685828527586	0.04851495
0	3523	173.785828527586	0.04851495
0	3525	173.885828527586	0.04851495
0	3525	173.920915654	0.04851495
0	3527	173.985828527586	0.04851495
0	3529	174.085828527586	0.04851495
0	3531	174.185828527586	0.04851495
0	3533	174.285828527586	0.04851495
0	3535	174.385828527586	0.04851495
0	3537	174.485828527586	0.04851495
0	3539	174.585828527586	0.04851495
0	3539	174.591852619	0.04851495
0	3541	174.685828527586	0.04851495
0	3543	174.785828527586	0.04851495
0	3545	174.885828527586	0.04851495
0	3547	174.985828527586	0.04851495
0	3548	175.0797865	0.04851495
0	3549	175.085828527586	0.04851495
0	3551	175.185828527586	0.04851495
0	3553	175.285828527586	0.04851495
0	3555	175.385828527586	0.04851495
0	3557	175.485828527586	0.04851495
0	3557	175.520372134	0.04851495
0	3559	175.585828527586	0.04851495
0	3561	175.685828527586	0.04851495
0	3563	175.785828527586	0.04851495
0	3565	175.885828527586	0.04851495
0	3565	175.962562276	0.04851495
0	3567	175.985828527586	0.04851495
0	3569	176.085828527586	0.04851495
0	3571	176.185828527586	0.04851495
0	3573	176.285828527586	0.04851495
0	3574	176.375444815	0.0480298005
0	3574	176.375444815	0.0480298005
0	3575	176.385828527586	0.0480298005
0	3577	176.485828527586	0.0480298005
0	3579	176.585828527586	0.0480298005
0	3581	176.685828527586	0.0480298005
0	3583	176.785828527586	0.0480298005
0	3583	176.851332328	0.0480298005
0	3585	176.885828527586	0.0480298005
0	3587	176.985828527586	0.0480298005
0	3589	177.085828527586	0.0480298005
0	3591	177.185828527586	0.0480298005
0	3593	177.285828527586	0.0480298005
0	3593	177.28951738	0.0480298005
0	3595	177.385828527586	0.0480298005
0	3597	177.485828527586	0.0480298005
0	3599	177.585828527586	0.0480298005
0	3601	177.685828527586	0.0480298005
0	3603	177.785828527586	0.0480298005
0	3603	177.812797987	0.0480298005
0	3605	177.885828527586	0.0480298005
0	3607	177.985828527586	0.0480298005
0	3609	178.085828527586	0.0480298005
0	3611	178.185828527586	0.0480298005
0	3612	178.27115944	0.0480298005
0	3613	178.285828527586	0.0480298005
0	3615	178.385828527586	0.0480298005
0	3617	178.485828527586	0.0480298005
0	3619	178.585828527586	0.0480298005
0	3621	178.685828527586	0.0480298005
0	3621	178.715102581	0.0480298005
0	3623	178.785828527586	0.0480298005
0	3625	178.885828527586	0.0480298005
0	3627	178.985828527586	0.0480298005
0	3629	179.085828527586	0.0480298005
0	3630	179.176493956	0.047549502495
0	3630	179.176493956	0.047549502495
0	3631	179.185828527586	0.047549502495
0	3633	179.285828527586	0.047549502495
0	3635	179.385828527586	0.047549502495
0	3637	179.485828527586	0.047549502495
0	3639	179.585828527586	0.047549502495
0	3639	179.615115781	0.047549502495
0	3641	179.685828527586	0.047549502495
0	3643	179.785828527586	0.047549502495
0	3645	179.885828527586	0.047549502495
0	3647	179.985828527586	0.047549502495
0	3649	180.085828527586	0.047549502495
0	3651	180.185828527586	0.047549502495
0	3653	180.285828527586	0.047549502495
0	3655	180.385828527586	0.047549502495
0	3657	180.485828527586	0.047549502495
0	3659	180.585828527586	0.047549502495
0	3659	180.647290972	0.047549502495
0	3661	180.685828527586	0.047549502495
0	3663	180.785828527586	0.047549502495
0	3665	180.885828527586	0.047549502495
0	3667	180.985828527586	0.047549502495
0	3669	181.085828527586	0.047549502495
0	3671	181.185828527586	0.047549502495
0	3673	181.285828527586	0.047549502495
0	3675	181.385828527586	0.047549502495
0	3677	181.485828527586	0.047549502495
0	3677	181.555044493	0.047549502495
0	3679	181.585828527586	0.047549502495
0	3681	181.685828527586	0.047549502495
0	3683	181.785828527586	0.047549502495
0	3685	181.885828527586	0.047549502495
0	3687	181.985828527586	0.047549502495
0	3689	182.085828527586	0.047549502495
0	3691	182.185828527586	0.047549502495
0	3693	182.285828527586	0.047549502495
0	3695	182.385828527586	0.047549502495
0	3697	182.485828527586	0.047549502495
0	3699	182.585828527586	0.047549502495
0	3699	182.587110784	0.047549502495
1	0	0	0.004
1	461	23.08057828677	0
1	1210	60.266322145261	0.004
1	3170	156.31422973188	0
2	0	0	0.05
2	0	0.1	0.05
2	4	0.2	0.05
2	4	0.203437057	0.05
2	6	0.3	0.05
2	8	0.4	0.05
2	10	0.5	0.05
2	12	0.6	0.05
2	14	0.7	0.05
2	16	0.8	0.05
2	16	0.847013221	0.05
2	18	0.9	0.05
2	20	1	0.05
2	22	1.1	0.05
2	24	1.2	0.05
2	26	1.3	0.05
2	28	1.4	0.0495
2	28	1.4	0.0495
2	30	1.5	0.0499
2	32	1.6	0.05
2	32	1.693885195	0.05
2	34	1.7	0.05
2	36	1.8	0.05
2	38	1.9	0.05
2	40	2	0.05
2	42	2.1	0.05
2	42	2.132397748	0.05
2	44	2.2	0.05
2	46	2.3	0.05
2	48	2.4	0.05
2	50	2.5	0.05
2	52	2.6	0.05
2	52	2.66007403	0.05
2	54	2.7	0.05
2	56	2.8	0.0495
2	56	2.8	0.0495
2	58	2.9	0.0499
2	60	3	0.05
2	62	3.1	0.05
2	64	3.2	0.05
2	66	3.3	0.05
2	68	3.4	0.05
2	68	3.409622941	0.05
2	70	3.5	0.05
2	72	3.6	0.05
2	74	3.7	0.05
2	76	3.8	0.05
2	78	3.9	0.05
2	80	4	0.05
2	80	4.032649453	0.05
2	82	4.1	0.05
2	84	4.2	0.05
2	86	4.3	0.0495
2	86	4.3	0.0495
2	88	4.4	0.0499
2	90	4.5	0.05
2	90	4.510643395	0.05
2	92	4.6	0.05
2	94	4.7	0.05
2	96	4.8	0.05
2	98	4.9	0.05
2	100	5	0.05
2	100	5.067513463	0.05
2	102	5.1	0.05
2	104	5.2	0.05
2	106	5.3	0.05
2	106	5.329155415	0.05
2	108	5.4	0.05
2	110	5.5	0.05
2	112	5.6	0.05
2	114	5.7	0.0495
2	114	5.7	0.0495
2	114	5.736223057	0.049644892228
2	116	5.8	0.0499
2	118	5.9	0.05
2	120	6	0.05
2	122	6.1	0.05
2	124	6.2	0.05
2	126	6.3	0.05
2	128	6.4	0.05
2	128	6.451642936	0.05
2	130	6.5	0.05
2	132	6.6	0.05
2	134	6.7	0.05
2	136	6.8	0.05
2	138	6.9	0.05
2	138	6.960288034	0.05
2	140	7	0.05
2	142	7.1	0.0495
2	142	7.1	0.0495
2	144	7.2	0.0499
2	146	7.3	0.05
2	146	7.396291819	0.05
2	148	7.4	0.05
2	150	7.5	0.05
2	152	7.6	0.05
2	152	7.676642896	0.05
2	154	7.7	0.05
2	156	7.8	0.05
2	158	7.9	0.05
2	160	8	0.05
2	162	8.1	0.05
2	162	8.150854549	0.05
2	164	8.2	0.05
2	166	8.3	0.05
2	168	8.4	0.05
2	170	8.5	0.0495
2	170	8.5	0.0495
2	172	8.6	0.0499
2	172	8.641361743	0.05
2	174	8.7	0.05
2	176	8.8	0.05
2	178	8.9	0.05
2	180	9	0.05
2	182	9.1	0.05
2	182	9.170052544	0.05
2	184	9.2	0.05
2	186	9.3	0.05
2	188	9.4	0.05
2	190	9.5	0.05
2	192	9.6	0.05
2	192	9.67227601	0.05
2	194	9.7	0.05
2	196	9.8	0.05
2	198	9.9	0.0495
2	198	9.9	0.0495
2	200	10	0.0499
2	200	10.096349773	0.05
2	202	10.1	0.05
2	204	10.2	0.05
2	206	10.3	0.05
2	208	10.4	0.05
2	210	10.5	0.05
2	212	10.6	0.05
2	212	10.698580873	0.05
2	214	10.7	0.05
2	216	10.8	0.05
2	218	10.9	0.05
2	220	11	0.05
2	222	11.1	0.05
2	222	11.192536633	0.05
2	224	11.2	0.05
2	226	11.3	0.0495
2	226	11.3	0.0495
2	228	11.4	0.0499
2	230	11.5	0.05
2	232	11.6	0.05
2	232	11.638298452	0.05
2	234	11.7	0.05
2	236	11.8	0.05
2	238	11.9	0.05
2	240	12	0.05
2	242	12.1	0.05
2	244	12.2	0.05
2	244	12.266777632	0.05
2	246	12.3	0.05
2	248	12.4	0.05
2	250	12.5	0.05
2	252	12.6	0.05
2	254	12.7	0.05
2	256	12.8	0.0495
2	256	12.8	0.0495
2	258	12.9	0.0499
2	260	13	0.05
2	260	13.038417418	0.05
2	262	13.1	0.05
2	264	13.2	0.05
2	266	13.3	0.05
2	268	13.4	0.05
2	270	13.5	0.05
2	270	13.585161595	0.05
2	272	13.6	0.05
2	274	13.7	0.05
2	276	13.8	0.05
2	278	13.9	0.05
2	280	14	0.05
2	282	14.1	0.05
2	282	14.144480152	0.05
2	284	14.2	0.0495
2	284	14.2	0.0495
2	286	14.3	0.0499
2	288	14.4	0.05
2	288	14.439378037	0.05
2	290	14.5	0.05
2	292	14.6	0.05
2	294	14.7	0.05
2	294	14.733355579	0.05
2	296	14.8	0.05
2	298	14.9	0.05
2	300	15	0.05
2	302	15.1	0.05
2	302	15.155283169	0.05
2	304	15.2	0.05
2	306	15.3	0.05
2	308	15.4	0.05
2	308	15.433573378	0.05
2	310	15.5	0.0495
2	310	15.5	0.0495
2	312	15.6	0.0499
2	314	15.7	0.05
2	316	15.8	0.05
2	318	15.9	0.05
2	318	15.938643439	0.05
2	320	16	0.05
2	322	16.1	0.05
2	324	16.2	0.05
2	324	16.213865737	0.05
2	326	16.3	0.05
2	328	16.4	0.05
2	330	16.5	0.05
2	332	16.6	0.05
2	332	16.675917538	0.05
2	334	16.7	0.05
2	336	16.8	0.05
2	338	16.9	0.0495
2	338	16.9	0.0495
2	340	17	0.0499
2	342	17.1	0.05
2	342	17.175729064	0.05
2	344	17.2	0.05
2	346	17.3	0.05
2	348	17.4	0.05
2	350	17.5	0.05
2	352	17.6	0.05
2	354	17.7	0.05
2	356	17.8	0.05
2	356	17.830710085	0.05
2	358	17.9	0.05
2	360	18	0.05
2	362	18.1	0.05
2	364	18.2	0.05
2	366	18.3	0.05
2	368	18.4	0.0495
2	368	18.4	0.0495
2	370	18.5	0.0499
2	372	18.6	0.05
2	374	18.7	0.05
2	374	18.72509773	0.05
2	376	18.8	0.05
2	378	18.9	0.05
2	380	19	0.05
2	382	19.1	0.05
2	384	19.2	0.05
2	386	19.3	0.05
2	388	19.4	0.05
2	388	19.458040531	0.05
2	390	19.5	0.05
2	392	19.6	0.05
2	394	19.7	0.05
2	394	19.723525087	0.05
2	396	19.8	0.0495
2	396	19.8	0.0495
2	398	19.9	0.0499
2	400	20	0.05
2	402	20.1	0.05
2	404	20.2	0.05
2	404	20.207809579	0.05
2	406	20.3	0.05
2	408	20.4	0.05
2	410	20.5	0.05
2	412	20.6	0.05
2	412	20.629799383	0.05
2	414	20.7	0.05
2	416	20.8	0.05
2	416	20.867757514	0.05
2	418	20.9	0.05
2	420	21	0.05
2	422	21.1	0.05
2	424	21.2	0.0495
2	424	21.2	0.0495
2	426	21.3	0.0499
2	428	21.4	0.05
2	428	21.41654437	0.05
2	430	21.5	0.05
2	432	21.6	0.05
2	434	21.7	0.05
2	434	21.716589415	0.05
2	436	21.8	0.05
2	438	21.9	0.05
2	440	22	0.05
2	442	22.1	0.05
2	442	22.150623859	0.05
2	444	22.2	0.05
2	446	22.3	0.05
2	448	22.4	0.05
2	448	22.426746082	0.05
2	450	22.5	0.0495
2	450	22.5	0.0495
2	452	22.6	0.0499
2	454	22.7	0.05
2	456	22.8	0.05
2	458	22.9	0.05
2	458	22.934026144	0.05
2	460	23	0.05
2	463	23.1	0.05
2	465	23.2	0.05
2	467	23.3	0.05
2	469	23.4	0.05
2	469	23.485172869	0.05
2	471	23.5	0.05
2	473	23.6	0.05
2	475	23.7	0.05
2	477	23.8	0.05
2	479	23.9	0.05
2	481	24	0.05
2	481	24.051211597	0.05
2	483	24.1	0.05
2	485	24.2	0.05
2	487	24.3	0.05
2	489	24.4	0.05
2	491	24.5	0.05
2	493	24.6	0.05
2	493	24.694257619	0.05
2	495	24.7	0.05
2	497	24.8	0.05
2	499	24.9	0.05
2	499	24.974032282	0.05
2	501	25	0.05
2	503	25.1	0.05
2	505	25.2	0.05
2	505	25.246415233	0.05
2	507	25.3	0.05
2	509	25.4	0.05
2	511	25.5	0.05
2	511	25.537549129	0.05
2	513	25.6	0.05
2	515	25.7	0.05
2	517	25.8	0.05
2	519	25.9	0.05
2	521	26	0.05
2	521	26.047352818	0.05
2	523	26.1	0.05
2	525	26.2	0.05
2	527	26.3	0.05
2	527	26.335423495	0.05
2	529	26.4	0.05
2	531	26.5	0.05
2	533	26.6	0.05
2	535	26.7	0.05
2	535	26.794244539	0.05
2	537	26.8	0.05
2	539	26.9	0.05
2	541	27	0.05
2	543	27.1	0.05
2	545	27.2	0.05
2	547	27.3	0.05
2	547	27.321255481	0.05
2	549	27.4	0.05
2	551	27.5	0.05
2	553	27.6	0.05
2	555	27.7	0.05
2	557	27.8	0.05
2	557	27.859151437	0.05
2	559	27.9	0.05
2	561	28	0.05
2	563	28.1	0.05
2	563	28.127992849	0.05
2	565	28.2	0.05
2	567	28.3	0.05
2	569	28.4	0.05
2	571	28.5	0.05
2	571	28.550741422	0.05
2	573	28.6	0.05
2	575	28.7	0.05
2	577	28.8	0.05
2	579	28.9	0.05
2	579	28.964195473	0.05
2	581	29	0.05
2	583	29.1	0.05
2	585	29.2	0.05
2	587	29.3	0.05
2	589	29.4	0.05
2	589	29.467049806	0.0495
2	589	29.467049806	0.0495
2	591	29.5	0.049631800776
2	593	29.6	0.05
2	595	29.7	0.05
2	597	29.8	0.05
2	599	29.9	0.05
2	599	29.957662042	0.05
2	601	30	0.05
2	603	30.1	0.05
2	605	30.2	0.05
2	607	30.3	0.05
2	609	30.4	0.05
2	611	30.5	0.05
2	611	30.501100513	0.05
2	613	30.6	0.05
2	615	30.7	0.05
2	617	30.8	0.05
2	619	30.9	0.05
2	619	30.909328987	0.05
2	621	31	0.05
2	623	31.1	0.05
2	625	31.2	0.05
2	627	31.3	0.05
2	627	31.37137681	0.05
2	629	31.4	0.05
2	631	31.5	0.05
2	633	31.6	0.05
2	635	31.7	0.05
2	635	31.798987204	0.05
2	637	31.8	0.05
2	639	31.9	0.05
2	641	32	0.05
2	643	32.1	0.05
2	643	32.191394875	0.05
2	645	32.2	0.05
2	647	32.3	0.05
2	649	32.4	0.05
2	651	32.5	0.05
2	653	32.6	0.05
2	653	32.617163824	0.05
2	655	32.7	0.05
2	657	32.8	0.05
2	659	32.9	0.05
2	659	32.995209451	0.05
2	661	33	0.05
2	663	33.1	0.05
2	665	33.2	0.05
2	665	33.248527312	0.05
2	667	33.3	0.05
2	669	33.4	0.05
2	671	33.5	0.05
2	673	33.6	0.05
2	675	33.7	0.05
2	675	33.703350952	0.05
2	677	33.8	0.05
2	679	33.9	0.05
2	679	33.936914431	0.05
2	681	34	0.05
2	683	34.1	0.05
2	685	34.2	0.05
2	687	34.3	0.05
2	687	34.391182381	0.05
2	689	34.4	0.05
2	691	34.5	0.05
2	693	34.6	0.05
2	693	34.670183752	0.05
2	695	34.7	0.05
2	697	34.8	0.05
2	699	34.9	0.05
2	699	34.951200361	0.05
2	701	35	0.05
2	703	35.1	0.05
2	705	35.2	0.05
2	705	35.234017603	0.05
2	707	35.3	0.05
2	709	35.4	0.05
2	711	35.5	0.05
2	713	35.6	0.05
2	715	35.7	0.05
2	715	35.746645504	0.05
2	717	35.8	0.05
2	719	35.9	0.05
2	721	36	0.05
2	723	36.1	0.05
2	725	36.2	0.05
2	725	36.207049087	0.0495
2	725	36.207049087	0.0495
2	727	36.3	0.049871803652
2	729	36.4	0.05
2	729	36.430516048	0.05
2	731	36.5	0.05
2	733	36.6	0.05
2	735	36.7	0.05
2	737	36.8	0.05
2	739	36.9	0.05
2	739	36.932051323	0.05
2	741	37	0.05
2	743	37.1	0.05
2	745	37.2	0.05
2	747	37.3	0.05
2	749	37.4	0.05
2	749	37.42797415	0.05
2	751	37.5	0.05
2	753	37.6	0.05
2	755	37.7	0.05
2	757	37.8	0.05
2	757	37.813728847	0.05
2	759	37.9	0.05
2	761	38	0.05
2	763	38.1	0.05
2	765	38.2	0.05
2	765	38.218738036	0.05
2	767	38.3	0.05
2	769	38.4	0.05
2	771	38.5	0.05
2	773	38.6	0.05
2	775	38.7	0.05
2	775	38.774452327	0.05
2	777	38.8	0.05
2	779	38.9	0.05
2	781	39	0.05
2	783	39.1	0.05
2	785	39.2	0.05
2	787	39.3	0.05
2	787	39.376029454	0.05
2	789	39.4	0.05
2	791	39.5	0.05
2	793	39.6	0.05
2	795	39.7	0.05
2	797	39.8	0.05
2	799	39.9	0.05
2	799	39.958572517	0.05
2	801	40	0.05
2	803	40.1	0.05
2	805	40.2	0.05
2	807	40.3	0.05
2	809	40.4	0.05
2	811	40.5	0.05
2	811	40.544564161	0.05
2	813	40.6	0.05
2	815	40.7	0.05
2	817	40.8	0.05
2	819	40.9	0.05
2	821	41	0.05
2	823	41.1	0.05
2	823	41.195606269	0.05
2	825	41.2	0.05
2	827	41.3	0.05
2	829	41.4	0.05
2	831	41.5	0.05
2	833	41.6	0.05
2	835	41.7	0.05
2	835	41.743113829	0.05
2	837	41.8	0.05
2	839	41.9	0.05
2	841	42	0.05
2	843	42.1	0.05
2	845	42.2	0.05
2	845	42.283360003	0.05
2	847	42.3	0.05
2	849	42.4	0.05
2	851	42.5	0.05
2	853	42.6	0.05
2	855	42.7	0.05
2	857	42.8	0.05
2	857	42.876354628	0.05
2	859	42.9	0.05
2	861	43	0.05
2	863	43.1	0.05
2	865	43.2	0.05
2	867	43.3	0.05
2	869	43.4	0.05
2	869	43.440814183	0.05
2	871	43.5	0.05
2	873	43.6	0.05
2	875	43.7	0.05
2	877	43.8	0.05
2	879	43.9	0.05
2	881	44	0.05
2	883	44.1	0.05
2	883	44.1254731	0.05
2	885	44.2	0.05
2	887	44.3	0.05
2	889	44.4	0.05
2	891	44.5	0.05
2	893	44.6	0.05
2	895	44.7	0.05
2	895	44.731231516	0.05
2	897	44.8	0.05
2	899	44.9	0.05
2	901	45	0.05
2	903	45.1	0.05
2	905	45.2	0.05
2	907	45.3	0.05
2	907	45.366010528	0.05
2	909	45.4	0.05
2	911	45.5	0.05
2	913	45.6	0.05
2	915	45.7	0.05
2	917	45.8	0.05
2	919	45.9	0.05
2	919	45.97217359	0.05
2	921	46	0.05
2	923	46.1	0.05
2	925	46.2	0.05
2	927	46.3	0.05
2	929	46.4	0.05
2	931	46.5	0.05
2	933	46.6	0.05
2	933	46.684915045	0.05
2	935	46.7	0.05
2	937	46.8	0.05
2	939	46.9	0.05
2	940	46.974101355068	0.05
2	942	47	0.05
2	944	47.1	0.05
2	946	47.2	0.05
2	946	47.240110159	0.05
2	948	47.3	0.05
2	950	47.4	0.05
2	952	47.5	0.05
2	954	47.6	0.05
2	956	47.7	0.0495
2	956	47.7	0.0495
2	958	47.8	0.0495
2	958	47.883455482	0.0495
2	960	47.9	0.0495
2	962	48	0.0495
2	964	48.1	0.0495
2	966	48.2	0.0495
2	968	48.3	0.0495
2	970	48.4	0.0495
2	972	48.5	0.0495
2	972	48.542623054	0.0495
2	974	48.6	0.0495
2	976	48.7	0.0495
2	978	48.8	0.0495
2	980	48.9	0.0495
2	982	49	0.0495
2	984	49.1	0.0495
2	984	49.14126499	0.0495
2	986	49.2	0.0495
2	988	49.3	0.0495
2	990	49.4	0.0495
2	992	49.5	0.0495
2	994	49.6	0.0495
2	994	49.634310052	0.0495
2	996	49.7	0.0495
2	998	49.8	0.0495
2	1000	49.9	0.0495
2	1002	50	0.0495
2	1004	50.1	0.0495
2	1004	50.112451483	0.0495
2	1006	50.2	0.0495
2	1008	50.3	0.0495
2	1008	50.357527795	0.0495
2	1010	50.4	0.0495
2	1012	50.5	0.049005
2	1012	50.5	0.049005
2	1014	50.6	0.049005
2	1014	50.648433103	0.049005
2	1015	50.684302222663	0.049005
2	1017	50.784302222663	0.049005
[...]
2	2777	136.879027515752	0.05
2	2779	136.979027515752	0.05
2	2781	137.079027515752	0.05
2	2783	137.179027515752	0.05
2	2784	137.205496243	0.05
2	2785	137.279027515752	0.05
2	2787	137.379027515752	0.05
2	2789	137.479027515752	0.05
2	2791	137.579027515752	0.05
2	2793	137.679027515752	0.05
2	2794	137.708709502	0.05
2	2795	137.779027515752	0.05
2	2797	137.879027515752	0.05
2	2799	137.979027515752	0.05
2	2801	138.079027515752	0.05
2	2803	138.179027515752	0.05
2	2803	138.199187383	0.0495
2	2803	138.199187383	0.0495
2	2805	138.279027515752	0.0495
2	2807	138.379027515752	0.0495
2	2809	138.479027515752	0.0495
2	2811	138.579027515752	0.0495
2	2811	138.595397596	0.0495
2	2813	138.679027515752	0.0495
2	2815	138.779027515752	0.0495
2	2817	138.879027515752	0.0495
2	2819	138.979027515752	0.0495
2	2820	139.03660291	0.0495
2	2821	139.079027515752	0.0495
2	2823	139.179027515752	0.0495
2	2825	139.279027515752	0.0495
2	2827	139.379027515752	0.0495
2	2829	139.479027515752	0.0495
2	2830	139.550692522	0.0495
2	2831	139.579027515752	0.0495
2	2833	139.679027515752	0.0495
2	2835	139.779027515752	0.0495
2	2837	139.879027515752	0.0495
2	2839	139.979027515752	0.0495
2	2840	140.045205964	0.0495
2	2841	140.079027515752	0.0495
2	2843	140.179027515752	0.0495
2	2845	140.279027515752	0.0495
2	2847	140.379027515752	0.0495
2	2849	140.479027515752	0.0495
2	2850	140.549319139	0.0495
2	2851	140.579027515752	0.0495
2	2853	140.679027515752	0.0495
2	2855	140.779027515752	0.0495
2	2857	140.879027515752	0.0495
2	2859	140.979027515752	0.0495
2	2861	141.079027515752	0.0495
2	2861	141.083523658	0.0495
2	2863	141.179027515752	0.0495
2	2865	141.279027515752	0.0495
2	2867	141.379027515752	0.0495
2	2869	141.479027515752	0.0495
2	2871	141.579027515752	0.0495
2	2872	141.667106029	0.0495
2	2873	141.679027515752	0.0495
2	2875	141.779027515752	0.0495
2	2877	141.879027515752	0.0495
2	2879	141.979027515752	0.0495
2	2881	142.079027515752	0.0495
2	2882	142.112487415	0.0495
2	2883	142.179027515752	0.0495
2	2885	142.279027515752	0.0495
2	2887	142.379027515752	0.0495
2	2889	142.479027515752	0.0495
2	2891	142.579027515752	0.0495
2	2892	142.630899664	0.0495
2	2893	142.679027515752	0.0495
2	2895	142.779027515752	0.0495
2	2897	142.879027515752	0.0495
2	2899	142.979027515752	0.0495
2	2901	143.079027515752	0.0495
2	2902	143.146438087	0.0495
2	2903	143.179027515752	0.0495
2	2905	143.279027515752	0.0495
2	2907	143.379027515752	0.0495
2	2909	143.479027515752	0.0495
2	2911	143.579027515752	0.0495
2	2912	143.616188068	0.0495
2	2913	143.679027515752	0.0495
2	2915	143.779027515752	0.0495
2	2917	143.879027515752	0.0495
2	2919	143.979027515752	0.0495
2	2921	144.079027515752	0.0495
2	2923	144.179027515752	0.0495
2	2924	144.249103492	0.0495
2	2925	144.279027515752	0.0495
2	2927	144.379027515752	0.0495
2	2929	144.479027515752	0.0495
2	2931	144.579027515752	0.0495
2	2933	144.679027515752	0.0495
2	2934	144.715368559	0.0495
2	2935	144.779027515752	0.0495
2	2937	144.879027515752	0.0495
2	2939	144.979027515752	0.0495
2	2941	145.079027515752	0.0495
2	2943	145.179027515752	0.0495
2	2944	145.221784336	0.0495
2	2945	145.279027515752	0.0495
2	2947	145.379027515752	0.0495
2	2949	145.479027515752	0.0495
2	2951	145.579027515752	0.0495
2	2953	145.679027515752	0.0495
2	2954	145.713996178	0.0495
2	2955	145.779027515752	0.0495
2	2957	145.879027515752	0.0495
2	2959	145.979027515752	0.0495
2	2961	146.079027515752	0.0495
2	2963	146.179027515752	0.0495
2	2964	146.259101218	0.0495
2	2965	146.279027515752	0.0495
2	2967	146.379027515752	0.0495
2	2969	146.479027515752	0.0495
2	2971	146.579027515752	0.0495
2	2973	146.679027515752	0.0495
2	2974	146.761951744	0.0495
2	2975	146.779027515752	0.0495
2	2977	146.879027515752	0.0495
2	2979	146.979027515752	0.0495
2	2981	147.079027515752	0.0495
2	2983	147.179027515752	0.0495
2	2984	147.214040557	0.0495
2	2985	147.279027515752	0.0495
2	2987	147.379027515752	0.0495
2	2989	147.479027515752	0.0495
2	2991	147.579027515752	0.0495
2	2993	147.679027515752	0.0495
2	2994	147.734415241	0.0495
2	2995	147.779027515752	0.0495
2	2997	147.879027515752	0.0495
2	2999	147.979027515752	0.0495
2	3001	148.079027515752	0.0495
2	3003	148.179027515752	0.0495
2	3004	148.276600336	0.0495
2	3005	148.279027515752	0.0495
2	3007	148.379027515752	0.0495
2	3009	148.479027515752	0.0495
2	3011	148.579027515752	0.0495
2	3013	148.679027515752	0.0495
2	3015	148.779027515752	0.0495
2	3017	148.879027515752	0.0495
2	3018	148.976212531	0.0495
2	3019	148.979027515752	0.0495
2	3021	149.079027515752	0.0495
2	3023	149.179027515752	0.0495
2	3025	149.279027515752	0.0495
2	3027	149.379027515752	0.0495
2	3029	149.479027515752	0.0495
2	3031	149.579027515752	0.0495
2	3032	149.604689011	0.0495
2	3033	149.679027515752	0.0495
2	3035	149.779027515752	0.0495
2	3037	149.879027515752	0.0495
2	3039	149.979027515752	0.0495
2	3041	150.079027515752	0.0495
2	3043	150.142981356537	0.0495
2	3044	150.179027515752	0.04964418463686
2	3045	150.256321753	0.049953361585852
2	3046	150.267981356537	0.05
2	3047	150.279027515752	0.05
2	3049	150.379027515752	0.05
2	3051	150.479027515752	0.05
2	3053	150.579027515752	0.05
2	3055	150.679027515752	0.05
2	3057	150.779027515752	0.05
2	3059	150.879027515752	0.05
2	3060	150.958939951	0.05
2	3061	150.979027515752	0.05
2	3063	151.079027515752	0.05
2	3065	151.179027515752	0.05
2	3067	151.279027515752	0.05
2	3069	151.379027515752	0.05
2	3071	151.479027515752	0.05
2	3073	151.579027515752	0.05
2	3074	151.667861923	0.05
2	3075	151.679027515752	0.05
2	3077	151.779027515752	0.05
2	3079	151.879027515752	0.05
2	3081	151.979027515752	0.05
2	3083	152.079027515752	0.05
2	3085	152.179027515752	0.05
2	3087	152.279027515752	0.05
2	3088	152.343467851	0.05
2	3089	152.379027515752	0.05
2	3091	152.479027515752	0.05
2	3093	152.579027515752	0.05
2	3095	152.679027515752	0.05
2	3097	152.779027515752	0.05
2	3099	152.879027515752	0.05
2	3099	152.883182461	0.05
2	3101	152.979027515752	0.05
2	3103	153.079027515752	0.05
2	3105	153.179027515752	0.05
2	3107	153.279027515752	0.05
2	3108	153.375910888	0.05
2	3109	153.379027515752	0.05
2	3111	153.479027515752	0.05
2	3113	153.579027515752	0.05
2	3115	153.679027515752	0.05
2	3117	153.779027515752	0.05
2	3119	153.879027515752	0.05
2	3120	153.975452695	0.05
2	3121	153.979027515752	0.05
2	3123	154.041725199481	0.05
2	3124	154.079027515752	0.05
2	3126	154.179027515752	0.05
2	3128	154.279027515752	0.05
2	3130	154.379027515752	0.05
2	3131	154.465640236	0.05
2	3132	154.479027515752	0.05
2	3134	154.579027515752	0.05
2	3136	154.679027515752	0.05
2	3138	154.779027515752	0.05
2	3140	154.879027515752	0.05
2	3141	154.925735407	0.05
2	3142	154.979027515752	0.05
2	3144	155.079027515752	0.05
2	3146	155.179027515752	0.05
2	3148	155.279027515752	0.0495
2	3148	155.279027515752	0.0495
2	3150	155.379027515752	0.0495
2	3152	155.479027515752	0.0495
2	3153	155.504185699	0.0495
2	3154	155.579027515752	0.0495
2	3156	155.679027515752	0.0495
2	3158	155.779027515752	0.0495
2	3160	155.879027515752	0.0495
2	3162	155.979027515752	0.0495
2	3162	155.998378783	0.0495
2	3164	156.079027515752	0.0495
2	3166	156.179027515752	0.0495
2	3168	156.279027515752	0.0495
2	3171	156.379027515752	0.0495
2	3173	156.479027515752	0.0495
2	3173	156.496456177	0.0495
2	3175	156.579027515752	0.0495
2	3177	156.679027515752	0.0495
2	3179	156.779027515752	0.0495
2	3181	156.879027515752	0.0495
2	3183	156.979027515752	0.0495
2	3183	156.985428355	0.0495
2	3185	157.032479900138	0.0495
2	3186	157.079027515752	0.049686190462456
2	3188	157.157479900138	0.05
2	3189	157.179027515752	0.05
2	3191	157.279027515752	0.05
2	3193	157.379027515752	0.05
2	3195	157.479027515752	0.05
2	3196	157.504356349	0.05
2	3197	157.579027515752	0.05
2	3199	157.679027515752	0.05
2	3201	157.779027515752	0.05
2	3203	157.879027515752	0.05
2	3205	157.979027515752	0.05
2	3206	158.0351638	0.05
2	3207	158.079027515752	0.05
2	3209	158.179027515752	0.05
2	3211	158.279027515752	0.05
2	3213	158.379027515752	0.05
2	3215	158.479027515752	0.05
2	3216	158.565747856	0.05
2	3217	158.579027515752	0.05
2	3219	158.679027515752	0.05
2	3221	158.779027515752	0.05
2	3223	158.879027515752	0.05
2	3225	158.979027515752	0.05
2	3227	159.079027515752	0.05
2	3229	159.179027515752	0.05
2	3231	159.279027515752	0.05
2	3232	159.342980185	0.05
2	3233	159.379027515752	0.05
2	3235	159.479027515752	0.05
2	3237	159.579027515752	0.05
2	3239	159.679027515752	0.05
2	3241	159.779027515752	0.05
2	3243	159.879027515752	0.05
2	3243	159.898037677	0.05
2	3245	159.979027515752	0.05
2	3247	160.079027515752	0.05
2	3249	160.158693769202	0.05
2	3250	160.179027515752	0.05
2	3252	160.279027515752	0.05
2	3253	160.331829967	0.05
2	3254	160.379027515752	0.05
2	3256	160.479027515752	0.05
2	3258	160.579027515752	0.05
2	3260	160.679027515752	0.05
2	3262	160.779027515752	0.05
2	3264	160.879027515752	0.0495
2	3264	160.879027515752	0.0495
2	3265	160.937129758	0.0495
2	3266	160.979027515752	0.0495
2	3268	161.079027515752	0.0495
2	3270	161.179027515752	0.0495
2	3272	161.279027515752	0.0495
2	3274	161.379027515752	0.0495
2	3275	161.465316574	0.0495
2	3276	161.479027515752	0.0495
2	3278	161.579027515752	0.0495
2	3280	161.679027515752	0.0495
2	3282	161.779027515752	0.0495
2	3284	161.879027515752	0.0495
2	3286	161.979027515752	0.0495
2	3286	161.994988504	0.0495
2	3288	162.079027515752	0.0495
2	3290	162.179027515752	0.0495
2	3292	162.279027515752	0.049005
2	3292	162.279027515752	0.049005
2	3294	162.379027515752	0.049005
2	3296	162.479027515752	0.049005
2	3296	162.480143722	0.049005
2	3298	162.579027515752	0.049005
2	3300	162.679027515752	0.049005
2	3302	162.779027515752	0.049005
2	3303	162.877016131	0.049005
2	3304	162.879027515752	0.049005
2	3306	162.979027515752	0.049005
2	3308	163.079027515752	0.049005
2	3309	163.168374247	0.049005
2	3310	163.179027515752	0.049005
2	3312	163.279027515752	0.049005
2	3314	163.379027515752	0.049005
2	3316	163.479027515752	0.049005
2	3318	163.579027515752	0.049005
2	3320	163.679027515752	0.04851495
2	3320	163.679027515752	0.04851495
2	3321	163.743321754	0.04851495
2	3322	163.779027515752	0.04851495
2	3324	163.879027515752	0.04851495
2	3326	163.979027515752	0.04851495
2	3328	164.079027515752	0.04851495
2	3330	164.179027515752	0.04851495
2	3331	164.199742564	0.04851495
2	3332	164.279027515752	0.04851495
2	3334	164.379027515752	0.04851495
2	3336	164.479027515752	0.04851495
2	3338	164.579027515752	0.04851495
2	3339	164.614672882	0.04851495
2	3340	164.679027515752	0.04851495
2	3342	164.779027515752	0.04851495
2	3344	164.879027515752	0.04851495
2	3346	164.979027515752	0.04851495
2	3348	165.079027515752	0.0480298005
2	3348	165.079027515752	0.0480298005
2	3350	165.179027515752	0.0480298005
2	3351	165.224022361	0.0480298005
2	3352	165.279027515752	0.0480298005
2	3354	165.379027515752	0.0480298005
2	3356	165.466906331533	0.0480298005
2	3358	165.566906331533	0.0480298005
2	3360	165.666906331533	0.0480298005
2	3362	165.766906331533	0.0480298005
2	3363	165.792732877	0.0480298005
2	3364	165.866906331533	0.0480298005
2	3366	165.966906331533	0.0480298005
2	3368	166.066906331533	0.0480298005
2	3370	166.166906331533	0.0480298005
2	3371	166.194274285	0.0480298005
2	3372	166.266906331533	0.0480298005
2	3374	166.366906331533	0.0480298005
2	3376	166.466906331533	0.047549502495
2	3376	166.466906331533	0.047549502495
2	3378	166.566906331533	0.047549502495
2	3380	166.666906331533	0.047549502495
2	3380	166.681372159	0.047549502495
2	3382	166.766906331533	0.047549502495
2	3384	166.866906331533	0.047549502495
2	3386	166.966906331533	0.047549502495
2	3388	167.066906331533	0.047549502495
2	3389	167.103320743	0.047549502495
2	3390	167.166906331533	0.047549502495
2	3392	167.266906331533	0.047549502495
2	3394	167.366906331533	0.047549502495
2	3396	167.466906331533	0.047549502495
2	3397	167.553763261	0.047549502495
2	3398	167.566906331533	0.047549502495
2	3400	167.666906331533	0.047549502495
2	3402	167.766906331533	0.047549502495
2	3404	167.866906331533	0.04707400747005
2	3404	167.866906331533	0.04707400747005
2	3406	167.966906331533	0.04707400747005
2	3407	167.996818864	0.04707400747005
2	3408	168.066906331533	0.04707400747005
2	3410	168.166906331533	0.04707400747005
2	3412	168.266906331533	0.04707400747005
2	3414	168.366906331533	0.04707400747005
2	3415	168.448810756	0.04707400747005
2	3416	168.466906331533	0.04707400747005
2	3418	168.566906331533	0.04707400747005
2	3420	168.666906331533	0.04707400747005
2	3422	168.766906331533	0.04707400747005
2	3424	168.866906331533	0.04707400747005
2	3425	168.939070294	0.04707400747005
2	3426	168.966906331533	0.04707400747005
2	3428	169.066906331533	0.04707400747005
2	3430	169.166906331533	0.04707400747005
2	3432	169.266906331533	0.04660326739535
2	3432	169.266906331533	0.04660326739535
2	3434	169.366906331533	0.04660326739535
2	3435	169.405440091	0.04660326739535
2	3436	169.466906331533	0.04660326739535
2	3438	169.566906331533	0.04660326739535
2	3440	169.666906331533	0.04660326739535
2	3442	169.766906331533	0.04660326739535
2	3444	169.866906331533	0.04660326739535
2	3444	169.8682063	0.04660326739535
2	3446	169.966906331533	0.04660326739535
2	3448	170.066906331533	0.04660326739535
2	3450	170.166906331533	0.04660326739535
2	3452	170.266906331533	0.04660326739535
2	3453	170.329698811	0.04660326739535
2	3454	170.366906331533	0.04660326739535
2	3456	170.466906331533	0.04660326739535
2	3458	170.566906331533	0.04660326739535
2	3460	170.666906331533	0.046137234721396
2	3460	170.666906331533	0.046137234721396
2	3462	170.766906331533	0.046137234721396
2	3463	170.854435351	0.046137234721396
2	3464	170.866906331533	0.046137234721396
2	3466	170.966906331533	0.046137234721396
2	3468	171.066906331533	0.046137234721396
2	3469	171.108529558	0.046137234721396
2	3470	171.166906331533	0.046137234721396
2	3472	171.266906331533	0.046137234721396
2	3474	171.366906331533	0.046137234721396
2	3476	171.466906331533	0.046137234721396
2	3478	171.566906331533	0.046137234721396
2	3480	171.666906331533	0.046137234721396
2	3482	171.766906331533	0.046137234721396
2	3483	171.808878796	0.046137234721396
2	3484	171.866906331533	0.046137234721396
2	3486	171.966906331533	0.046137234721396
2	3488	172.066906331533	0.045675862374182
2	3488	172.066906331533	0.045675862374182
2	3490	172.166906331533	0.045675862374182
2	3492	172.266906331533	0.045675862374182
2	3494	172.366906331533	0.045675862374182
2	3496	172.466906331533	0.045675862374182
2	3498	172.566906331533	0.045675862374182
2	3500	172.666906331533	0.045675862374182
2	3501	172.735395808	0.045675862374182
2	3502	172.766906331533	0.045675862374182
2	3504	172.866906331533	0.045675862374182
2	3506	172.966906331533	0.045675862374182
2	3508	173.066906331533	0.045675862374182
2	3510	173.166906331533	0.045675862374182
2	3512	173.266906331533	0.045675862374182
2	3513	173.363527057	0.045675862374182
2	3514	173.366906331533	0.045675862374182
2	3516	173.466906331533	0.045675862374182
2	3518	173.566906331533	0.04521910375044
2	3518	173.566906331533	0.04521910375044
2	3520	173.666906331533	0.04521910375044
2	3522	173.766906331533	0.04521910375044
2	3524	173.866906331533	0.04521910375044
2	3525	173.920915654	0.04521910375044
2	3526	173.966906331533	0.04521910375044
2	3528	174.066906331533	0.04521910375044
2	3530	174.166906331533	0.04521910375044
2	3532	174.266906331533	0.04521910375044
2	3534	174.366906331533	0.04521910375044
2	3536	174.466906331533	0.04521910375044
2	3538	174.566906331533	0.04521910375044
2	3539	174.591852619	0.04521910375044
2	3540	174.666906331533	0.04521910375044
2	3542	174.766906331533	0.04521910375044
2	3544	174.866906331533	0.04521910375044
2	3546	174.966906331533	0.04521910375044
2	3548	175.066906331533	0.044766912712936
2	3548	175.066906331533	0.044766912712936
2	3548	175.0797865	0.044766912712936
2	3550	175.166906331533	0.044766912712936
2	3552	175.266906331533	0.044766912712936
2	3554	175.366906331533	0.044766912712936
2	3556	175.466906331533	0.044766912712936
2	3557	175.520372134	0.044766912712936
2	3558	175.566906331533	0.044766912712936
2	3560	175.666906331533	0.044766912712936
2	3562	175.766906331533	0.044766912712936
2	3564	175.866906331533	0.044766912712936
2	3565	175.962562276	0.044766912712936
2	3566	175.966906331533	0.044766912712936
2	3568	176.066906331533	0.044766912712936
2	3570	176.166906331533	0.044766912712936
2	3572	176.266906331533	0.044766912712936
2	3574	176.366906331533	0.044766912712936
2	3574	176.375444815	0.044766912712936
2	3576	176.466906331533	0.044766912712936
2	3578	176.566906331533	0.044766912712936
2	3580	176.666906331533	0.044766912712936
2	3582	176.766906331533	0.044766912712936
2	3583	176.851332328	0.044766912712936
2	3584	176.866906331533	0.044766912712936
2	3586	176.966906331533	0.044766912712936
2	3588	177.066906331533	0.044766912712936
2	3590	177.166906331533	0.044766912712936
2	3592	177.266906331533	0.044766912712936
2	3593	177.28951738	0.044766912712936
2	3594	177.366906331533	0.044766912712936
2	3596	177.466906331533	0.044766912712936
2	3598	177.566906331533	0.044766912712936
2	3600	177.666906331533	0.044766912712936
2	3602	177.766906331533	0.044766912712936
2	3603	177.812797987	0.044319243585806
2	3603	177.812797987	0.044319243585806
2	3604	177.866906331533	0.044319243585806
2	3606	177.966906331533	0.044319243585806
2	3608	178.066906331533	0.044319243585806
2	3610	178.166906331533	0.044319243585806
2	3612	178.266906331533	0.044319243585806
2	3612	178.27115944	0.044319243585806
2	3614	178.366906331533	0.044319243585806
2	3616	178.466906331533	0.044319243585806
2	3618	178.566906331533	0.044319243585806
2	3620	178.666906331533	0.044319243585806
2	3621	178.715102581	0.044319243585806
2	3622	178.766906331533	0.044319243585806
2	3624	178.866906331533	0.044319243585806
2	3626	178.966906331533	0.044319243585806
2	3628	179.066906331533	0.044319243585806
2	3630	179.166906331533	0.044319243585806
2	3630	179.176493956	0.044319243585806
2	3632	179.266906331533	0.044319243585806
2	3634	179.366906331533	0.044319243585806
2	3636	179.466906331533	0.044319243585806
2	3638	179.566906331533	0.044319243585806
2	3639	179.615115781	0.044319243585806
2	3640	179.666906331533	0.044319243585806
2	3642	179.766906331533	0.044319243585806
2	3644	179.866906331533	0.044319243585806
2	3646	179.966906331533	0.044319243585806
2	3648	180.066906331533	0.044319243585806
2	3650	180.166906331533	0.044319243585806
2	3652	180.266906331533	0.044319243585806
2	3654	180.366906331533	0.044319243585806
2	3656	180.466906331533	0.044319243585806
2	3658	180.566906331533	0.044319243585806
2	3659	180.647290972	0.044319243585806
2	3660	180.666906331533	0.043876051149948
2	3660	180.666906331533	0.043876051149948
2	3662	180.766906331533	0.043876051149948
2	3664	180.866906331533	0.043876051149948
2	3666	180.966906331533	0.043876051149948
2	3668	181.066906331533	0.043876051149948
2	3670	181.166906331533	0.043876051149948
2	3672	181.266906331533	0.043876051149948
2	3674	181.366906331533	0.043876051149948
2	3676	181.466906331533	0.043876051149948
2	3677	181.555044493	0.043876051149948
2	3678	181.566906331533	0.043876051149948
2	3680	181.666906331533	0.043876051149948
2	3682	181.766906331533	0.043876051149948
2	3684	181.866906331533	0.043876051149948
2	3686	181.966906331533	0.043876051149948
2	3688	182.066906331533	0.043876051149948
2	3690	182.166906331533	0.043876051149948
2	3692	182.266906331533	0.043437290638449
2	3692	182.266906331533	0.043437290638449
2	3694	182.366906331533	0.043437290638449
2	3696	182.466906331533	0.043437290638449
2	3698	182.566906331533	0.043437290638449
2	3699	182.587110784	0.043437290638449
3	0	0	0.004
3	940	46.974101355068	0
3	1045	52.166683510363	0.004
3	1390	68.189569090264	0
3	1983	97.806722856638	0.004
3	2760	136.034778713242	0
3	3043	150.142981356537	0.004
3	3123	154.041725199481	0
3	3185	157.032479900138	0.004
3	3249	160.158693769202	0
4	0	0	0.004
4	461	23.08057828677	0
4	1210	60.266322145261	0.004
4	3170	156.31422973188	0
5	0	0	0.004
5	940	46.974101355068	0
5	1045	52.166683510363	0.004
5	1390	68.189569090264	0
5	1983	97.806722856638	0.004
5	2760	136.034778713242	0
5	3043	150.142981356537	0.004
5	3123	154.041725199481	0
5	3185	157.032479900138	0.004
5	3249	160.158693769202	0

