version 2
run Mysterio_ex2-0-20210703-09:28:08-4413
attr configname Mysterio_ex2
attr datetime 20210703-09:28:08
attr experiment Mysterio_ex2
attr inifile omnetpp.ini
attr iterationvars ""
attr iterationvarsf ""
attr measurement ""
attr network MysterioCommunication2
attr processid 4413
attr repetition 0
attr replication #0
attr resultdir results
attr runnumber 0
attr seedset 0
param *.host[*].mobility.numeroDrones 2
param *.numHosts 2
param *.host[*].osgModel "\"3d/drone.ive.100.scale.0,0,90.rot\""
param *.basestation.osgModel "\"3d/car.ive.50.scale.0,0,90.rot\""
param *.canvasVisualizer.energyStorageVisualizer.displayEnergyStorages true
param *.host[*].hasStatus true
param *.host[*].energyStorage.typename "\"SimpleEpEnergyStorage\""
param *.host[*].wlan[*].radio.energyConsumer.typename "\"StateBasedEpEnergyConsumer\""
param *.host[*].energyManagement.typename "\"SimpleEpEnergyManagement\""
param *.host[*].energyStorage.nominalCapacity 0.05J
param *.host[*].energyManagement.nodeShutdownCapacity "0.1 * energyStorage.nominalCapacity"
param *.host[*].energyManagement.nodeStartCapacity "0.5 * energyStorage.nominalCapacity"
param *.host[*].energyStorage.initialCapacity 0.05J
param *.host[*].energyGenerator.typename "\"AlternatingEpEnergyGenerator\""
param *.host[*].energyGenerator.powerGeneration 4mW
param *.host[*].energyGenerator.sleepInterval exponential(25s)
param *.host[*].energyGenerator.generationInterval exponential(25s)
param *.host[*].mobility.typename "\"UAVMobility\""
param *.host[*].mobility.changeInterval 1s
param *.host[*].mobility.initialMovementHeading "uniform(0deg, 360deg)"
param *.host[*].mobility.initialMovementElevation "uniform(-90deg, 90deg)"
param *.host[*].mobility.angleDelta uniform(-10deg,10deg)
param *.host[*].mobility.rotationAxisAngle uniform(-10deg,10deg)
param *.host[*].mobility.speed uniform(10mps,20mps)
param *.host[*].mobility.faceForward false
param *.host[*].mobility.initialX 220m
param *.host[*].mobility.initialY 220m
param *.host[*].mobility.initialZ 80m
param *.visualizer.osgVisualizer.typename "\"IntegratedOsgVisualizer\""
param *.visualizer.osgVisualizer.sceneVisualizer.clearColor "\"skyblue\""
param *.visualizer.osgVisualizer.sceneVisualizer.sceneImage "\"showcases/desert\""
param *.visualizer.osgVisualizer.sceneVisualizer.sceneImageSize 5000m
param *.visualizer.osgVisualizer.sceneVisualizer.axisLength 1000m
param *.visualizer.osgVisualizer.sceneVisualizer.sceneMinX -2000m
param *.visualizer.osgVisualizer.sceneVisualizer.sceneMinY -2000m
param *.visualizer.osgVisualizer.sceneVisualizer.sceneMinZ 0m
param *.visualizer.osgVisualizer.sceneVisualizer.sceneMaxX 3000m
param *.visualizer.osgVisualizer.sceneVisualizer.sceneMaxY 3000m
param *.visualizer.osgVisualizer.sceneVisualizer.sceneMaxZ 1000m
param *.visualizer.osgVisualizer.networkNodeVisualizer.displayModuleName false
param *.visualizer.*.mobilityVisualizer.displayMobility true
param *.visualizer.*.mobilityVisualizer.displayPositions true
param *.visualizer.*.mobilityVisualizer.displayOrientations false
param *.visualizer.*.mobilityVisualizer.displayVelocities true
param *.visualizer.*.mobilityVisualizer.displayMovementTrails true
param *.visualizer.*.mobilityVisualizer.animationSpeed 1
param **.constraintAreaMinX 0m
param **.constraintAreaMinY 0m
param **.constraintAreaMinZ 0m
param **.constraintAreaMaxX 1000m
param **.constraintAreaMaxY 1000m
param **.constraintAreaMaxZ 1000m
param **.networkConfiguratorModule "\"\""

vector 0 MysterioCommunication2.host[0].energyStorage residualEnergyCapacity:vector ETV
attr interpolationmode linear
attr source residualEnergyCapacityChanged
attr title "Residual energy capacity, vector"
vector 1 MysterioCommunication2.host[0].energyGenerator powerGeneration:vector ETV
attr interpolationmode sample-hold
attr source powerGenerationChanged
attr title "Power generation, vector"
vector 2 MysterioCommunication2.host[1].energyStorage residualEnergyCapacity:vector ETV
attr interpolationmode linear
attr source residualEnergyCapacityChanged
attr title "Residual energy capacity, vector"
vector 3 MysterioCommunication2.host[1].energyGenerator powerGeneration:vector ETV
attr interpolationmode sample-hold
attr source powerGenerationChanged
attr title "Power generation, vector"
vector 4 MysterioCommunication2.host[0].energyStorage powerGeneration:vector ETV
attr interpolationmode sample-hold
attr source powerGenerationChanged
attr title "Power generation, vector"
vector 5 MysterioCommunication2.host[1].energyStorage powerGeneration:vector ETV
attr interpolationmode sample-hold
attr source powerGenerationChanged
attr title "Power generation, vector"
0	0	0	0.05
0	0	0.1	0.05
0	2	0.104267272	0.05
0	2	0.164371624	0.05
0	3	0.2	0.05
0	4	0.220725201	0.05
0	4	0.285853879	0.05
0	5	0.3	0.05
0	6	0.334024083	0.05
0	6	0.385536157	0.05
0	7	0.4	0.05
0	8	0.452819698	0.05
0	8	0.491436526	0.05
0	9	0.5	0.05
0	10	0.533779406	0.05
0	10	0.58490901	0.05
0	11	0.6	0.05
0	12	0.637967532	0.05
0	12	0.697803054	0.05
0	13	0.7	0.05
0	14	0.763694734	0.05
0	15	0.8	0.05
0	16	0.814852935	0.05
0	17	0.9	0.05
0	19	1	0.05
0	21	1.1	0.05
0	23	1.2	0.05
0	25	1.3	0.05
0	27	1.4	0.05
0	29	1.5	0.05
0	31	1.6	0.05
0	33	1.7	0.05
0	35	1.8	0.05
0	37	1.9	0.05
0	39	2	0.05
0	41	2.1	0.05
0	43	2.2	0.05
0	45	2.3	0.05
0	47	2.4	0.05
0	49	2.5	0.05
0	51	2.6	0.05
0	53	2.7	0.05
0	55	2.8	0.05
0	57	2.9	0.05
0	59	3	0.05
0	61	3.1	0.05
0	63	3.2	0.05
0	65	3.3	0.05
0	67	3.4	0.05
0	69	3.5	0.05
0	71	3.6	0.05
0	73	3.7	0.05
0	75	3.8	0.05
0	77	3.9	0.05
0	79	4	0.05
0	81	4.1	0.05
0	83	4.2	0.05
0	85	4.3	0.05
0	87	4.4	0.05
0	89	4.5	0.05
0	91	4.6	0.05
0	93	4.7	0.05
0	95	4.8	0.05
0	97	4.9	0.05
0	99	5	0.05
0	101	5.1	0.05
0	103	5.2	0.05
0	105	5.3	0.05
0	107	5.4	0.05
0	109	5.5	0.05
0	111	5.6	0.05
0	113	5.7	0.05
0	115	5.8	0.05
0	117	5.9	0.05
0	119	6	0.05
0	121	6.1	0.05
0	123	6.2	0.05
0	125	6.3	0.05
0	127	6.4	0.05
0	129	6.5	0.05
0	131	6.6	0.05
0	133	6.7	0.05
0	135	6.8	0.05
0	137	6.9	0.05
0	139	7	0.05
0	141	7.1	0.05
0	143	7.2	0.05
0	145	7.3	0.05
0	147	7.4	0.05
0	149	7.5	0.05
0	151	7.6	0.05
0	153	7.7	0.05
0	155	7.8	0.05
0	157	7.9	0.05
0	159	8	0.05
0	161	8.1	0.05
0	163	8.2	0.05
0	165	8.3	0.05
0	167	8.4	0.05
0	169	8.5	0.05
0	171	8.6	0.05
0	173	8.7	0.05
0	175	8.8	0.05
0	177	8.9	0.05
0	179	9	0.05
0	181	9.1	0.05
0	183	9.2	0.05
0	185	9.3	0.05
0	187	9.4	0.05
0	189	9.5	0.05
0	191	9.6	0.05
0	193	9.7	0.05
0	195	9.8	0.05
0	197	9.9	0.05
0	199	10	0.05
0	201	10.1	0.05
0	203	10.2	0.05
0	205	10.3	0.05
0	207	10.4	0.05
0	209	10.5	0.05
0	211	10.6	0.05
0	213	10.7	0.05
0	215	10.8	0.05
0	217	10.9	0.05
0	219	11	0.05
0	221	11.1	0.05
0	223	11.2	0.05
0	225	11.3	0.05
0	227	11.4	0.05
0	229	11.5	0.05
0	231	11.6	0.05
0	233	11.7	0.05
0	235	11.8	0.05
0	237	11.9	0.05
0	239	12	0.05
0	241	12.1	0.05
0	243	12.2	0.05
0	245	12.3	0.05
0	247	12.4	0.05
0	249	12.5	0.05
0	251	12.6	0.05
0	253	12.7	0.05
0	255	12.8	0.05
0	257	12.9	0.05
0	259	13	0.05
0	261	13.1	0.05
0	263	13.2	0.05
0	265	13.3	0.05
0	267	13.4	0.05
0	269	13.5	0.05
0	271	13.6	0.05
0	273	13.7	0.05
0	275	13.8	0.05
0	277	13.9	0.05
0	279	14	0.05
0	281	14.1	0.05
0	283	14.2	0.05
0	285	14.3	0.05
0	287	14.4	0.05
0	289	14.5	0.05
0	291	14.6	0.05
0	293	14.7	0.05
0	295	14.8	0.05
0	297	14.9	0.05
0	299	15	0.05
0	301	15.1	0.05
0	303	15.2	0.05
0	305	15.3	0.05
0	307	15.4	0.05
0	309	15.5	0.05
0	311	15.6	0.05
0	313	15.7	0.05
0	315	15.8	0.05
0	317	15.9	0.05
0	319	16	0.05
0	321	16.1	0.05
0	323	16.2	0.05
0	325	16.3	0.05
0	327	16.4	0.05
0	329	16.5	0.05
0	331	16.6	0.05
0	333	16.7	0.05
0	335	16.8	0.05
0	337	16.9	0.05
0	339	17	0.05
0	341	17.1	0.05
0	343	17.2	0.05
0	345	17.3	0.05
0	347	17.4	0.05
0	349	17.5	0.05
0	351	17.6	0.05
0	353	17.7	0.05
0	355	17.8	0.05
0	357	17.9	0.05
0	359	18	0.05
0	361	18.1	0.05
0	363	18.2	0.05
0	365	18.3	0.05
0	367	18.4	0.05
0	369	18.5	0.05
0	371	18.6	0.05
0	373	18.7	0.05
0	375	18.8	0.05
0	377	18.9	0.05
0	379	19	0.05
0	381	19.1	0.05
0	383	19.2	0.05
0	385	19.3	0.05
0	387	19.4	0.05
0	389	19.5	0.05
0	391	19.6	0.05
0	393	19.7	0.05
0	395	19.8	0.05
0	397	19.9	0.05
0	399	20	0.05
0	401	20.1	0.05
0	403	20.2	0.05
0	405	20.3	0.05
0	407	20.4	0.05
0	409	20.5	0.05
0	411	20.6	0.05
0	413	20.7	0.05
0	415	20.8	0.05
0	417	20.9	0.05
0	419	21	0.05
0	421	21.1	0.05
0	423	21.2	0.05
0	425	21.3	0.05
0	427	21.4	0.05
0	429	21.5	0.05
0	431	21.6	0.05
0	433	21.7	0.05
0	435	21.8	0.05
0	437	21.9	0.05
0	439	22	0.05
0	441	22.1	0.05
0	443	22.2	0.05
0	445	22.3	0.05
0	447	22.4	0.05
0	449	22.5	0.05
0	451	22.6	0.05
0	453	22.7	0.05
0	455	22.8	0.05
0	457	22.9	0.05
0	459	23	0.05
0	461	23.08057828677	0.05
0	462	23.1	0.05
0	464	23.2	0.05
0	466	23.3	0.05
0	468	23.4	0.05
0	470	23.5	0.05
0	472	23.6	0.05
0	474	23.7	0.05
0	476	23.8	0.05
0	478	23.9	0.05
0	480	24	0.045
0	480	24	0.045
0	482	24.1	0.045
0	484	24.2	0.045
0	486	24.3	0.045
0	488	24.4	0.045
0	490	24.5	0.045
0	492	24.6	0.045
0	494	24.7	0.045
0	496	24.732878554105	0.045
0	497	24.8	0.04526848578358
0	499	24.857878554105	0.0455
0	500	24.9	0.04566848578358
0	502	24.982878554105	0.046
0	503	25	0.04606848578358
0	505	25.1	0.04646848578358
0	507	25.107878554105	0.0465
0	508	25.2	0.04686848578358
0	510	25.232878554105	0.047
0	511	25.3	0.04726848578358
0	513	25.357878554105	0.0475
0	514	25.4	0.042901637205222
0	514	25.4	0.042901637205222
0	516	25.482878554105	0.048
0	517	25.5	0.04806848578358
0	519	25.6	0.04846848578358
0	521	25.607878554105	0.0485
0	522	25.7	0.04886848578358
0	524	25.732878554105	0.049
0	525	25.8	0.04926848578358
0	527	25.857878554105	0.0495
0	528	25.9	0.04966848578358
0	530	25.982878554105	0.05
0	531	26	0.05
0	533	26.1	0.05
0	535	26.2	0.05
0	537	26.3	0.05
0	539	26.4	0.05
0	541	26.5	0.05
0	543	26.6	0.05
0	545	26.7	0.05
0	547	26.8	0.05
0	549	26.9	0.05
0	551	27	0.05
0	553	27.1	0.05
0	555	27.2	0.05
0	557	27.3	0.05
0	559	27.4	0.05
0	561	27.5	0.05
0	563	27.6	0.05
0	565	27.7	0.05
0	567	27.8	0.05
0	569	27.9	0.05
0	571	28	0.05
0	573	28.1	0.05
0	575	28.2	0.05
0	577	28.3	0.05
0	579	28.4	0.05
0	581	28.5	0.05
0	583	28.6	0.05
0	585	28.7	0.05
0	587	28.8	0.05
0	589	28.9	0.05
0	591	29	0.05
0	593	29.1	0.05
0	595	29.2	0.05
0	597	29.3	0.05
0	599	29.4	0.05
0	601	29.5	0.05
0	603	29.6	0.05
0	605	29.7	0.05
0	607	29.8	0.05
0	609	29.9	0.05
0	611	30	0.05
0	613	30.1	0.05
0	615	30.2	0.05
0	617	30.3	0.05
0	619	30.4	0.05
0	621	30.5	0.05
0	623	30.6	0.05
0	625	30.7	0.05
0	627	30.8	0.05
0	629	30.9	0.05
0	631	31	0.05
0	633	31.1	0.05
0	635	31.2	0.05
0	637	31.3	0.05
0	639	31.4	0.05
0	641	31.5	0.05
0	643	31.6	0.05
0	645	31.7	0.05
0	647	31.8	0.05
0	649	31.9	0.05
0	651	32	0.05
0	653	32.1	0.05
0	655	32.2	0.05
0	657	32.3	0.05
0	659	32.4	0.05
0	661	32.5	0.05
0	663	32.6	0.05
0	665	32.7	0.05
0	667	32.8	0.05
0	669	32.9	0.05
0	671	33	0.05
0	673	33.1	0.05
0	675	33.2	0.05
0	677	33.3	0.05
0	679	33.4	0.05
0	681	33.5	0.05
0	683	33.6	0.05
0	685	33.7	0.05
0	687	33.8	0.05
0	689	33.9	0.05
0	691	34	0.05
0	693	34.1	0.05
0	695	34.2	0.05
0	697	34.3	0.05
0	699	34.4	0.05
0	701	34.5	0.05
0	703	34.6	0.05
0	705	34.7	0.05
0	707	34.8	0.05
0	709	34.9	0.05
0	711	35	0.05
0	713	35.1	0.05
0	715	35.2	0.05
0	717	35.3	0.05
0	719	35.4	0.05
0	721	35.5	0.05
0	723	35.6	0.05
0	725	35.7	0.05
0	727	35.8	0.05
0	729	35.9	0.05
0	731	36	0.05
0	733	36.1	0.05
0	735	36.2	0.05
0	737	36.3	0.05
0	739	36.4	0.05
0	741	36.5	0.05
0	743	36.6	0.05
0	745	36.7	0.05
0	747	36.8	0.05
0	749	36.9	0.05
0	751	37	0.05
0	753	37.1	0.05
0	755	37.2	0.05
0	757	37.3	0.05
0	759	37.4	0.05
0	761	37.5	0.05
0	763	37.6	0.05
0	765	37.7	0.05
0	767	37.8	0.05
0	769	37.9	0.05
0	771	38	0.05
0	773	38.1	0.05
0	775	38.2	0.05
0	777	38.3	0.05
0	779	38.4	0.05
0	781	38.5	0.05
0	783	38.6	0.05
0	785	38.7	0.05
0	787	38.8	0.05
0	789	38.9	0.05
0	791	39	0.05
0	793	39.1	0.05
0	795	39.2	0.05
0	797	39.3	0.05
0	799	39.4	0.05
0	801	39.5	0.05
0	803	39.6	0.05
0	805	39.7	0.05
0	807	39.8	0.05
0	809	39.9	0.05
0	811	40	0.05
0	813	40.1	0.05
0	815	40.2	0.05
0	817	40.3	0.05
0	819	40.4	0.05
0	821	40.5	0.05
0	823	40.6	0.05
0	825	40.7	0.05
0	827	40.8	0.05
0	829	40.9	0.05
0	831	41	0.05
0	833	41.1	0.05
0	835	41.2	0.05
0	837	41.3	0.05
0	839	41.4	0.05
0	841	41.5	0.05
0	843	41.6	0.05
0	845	41.7	0.05
0	847	41.8	0.05
0	849	41.9	0.05
0	851	42	0.05
0	853	42.1	0.05
0	855	42.2	0.05
0	857	42.3	0.05
0	859	42.4	0.05
0	861	42.5	0.05
0	863	42.6	0.05
0	865	42.7	0.05
0	867	42.8	0.05
0	869	42.9	0.05
0	871	43	0.05
0	873	43.1	0.05
0	875	43.2	0.05
0	877	43.3	0.05
0	879	43.4	0.05
0	881	43.5	0.05
0	883	43.6	0.05
0	885	43.7	0.05
0	887	43.8	0.05
0	889	43.9	0.05
0	891	44	0.05
0	893	44.1	0.05
0	895	44.2	0.05
0	897	44.3	0.05
0	899	44.4	0.05
0	901	44.5	0.05
0	903	44.6	0.05
0	905	44.7	0.05
0	907	44.8	0.05
0	909	44.9	0.05
0	911	45	0.05
0	913	45.1	0.05
0	915	45.2	0.05
0	917	45.3	0.05
0	919	45.4	0.05
0	921	45.5	0.05
0	923	45.6	0.05
0	925	45.7	0.05
0	927	45.8	0.05
0	929	45.9	0.05
0	931	46	0.05
0	933	46.1	0.05
0	935	46.2	0.05
0	937	46.3	0.05
0	939	46.4	0.05
0	941	46.5	0.05
0	943	46.6	0.05
0	945	46.7	0.05
0	947	46.8	0.05
0	949	46.9	0.05
0	952	47	0.05
0	954	47.1	0.05
0	956	47.2	0.045
0	956	47.2	0.045
0	958	47.3	0.0454
0	960	47.4	0.0458
0	962	47.5	0.0462
0	964	47.6	0.0466
0	966	47.7	0.047
0	968	47.8	0.0474
0	970	47.9	0.0478
0	972	48	0.0482
0	974	48.1	0.0486
0	976	48.2	0.049
0	978	48.3	0.0494
0	980	48.4	0.0498
0	982	48.5	0.05
0	984	48.6	0.05
0	986	48.7	0.05
0	988	48.8	0.05
0	990	48.9	0.045
0	990	48.9	0.045
0	992	49	0.0454
0	994	49.1	0.0458
0	996	49.2	0.0462
0	998	49.3	0.0466
0	1000	49.4	0.047
0	1002	49.5	0.0474
0	1004	49.6	0.0478
0	1006	49.7	0.0482
0	1008	49.8	0.0486
0	1010	49.9	0.049
0	1012	50	0.0494
0	1014	50.1	0.0498
0	1016	50.2	0.05
0	1018	50.3	0.05
0	1020	50.4	0.05
0	1022	50.5	0.05
0	1024	50.6	0.045
0	1024	50.6	0.045
0	1027	50.7	0.0454
0	1029	50.8	0.0458
0	1031	50.9	0.0462
0	1033	51	0.0466
0	1035	51.1	0.047
0	1037	51.2	0.0474
0	1039	51.3	0.0478
0	1041	51.4	0.0482
0	1043	51.5	0.0486
0	1045	51.6	0.049
0	1047	51.7	0.0494
0	1049	51.8	0.0498
0	1051	51.9	0.05
0	1053	52	0.05
0	1055	52.1	0.05
0	1057	52.2	0.05
0	1059	52.3	0.05
0	1061	52.4	0.05
0	1063	52.5	0.05
0	1065	52.6	0.05
0	1067	52.7	0.05
0	1069	52.8	0.05
0	1071	52.9	0.05
0	1073	53	0.05
0	1075	53.1	0.05
0	1077	53.2	0.05
0	1079	53.3	0.05
0	1081	53.4	0.05
0	1083	53.5	0.05
0	1085	53.6	0.05
0	1087	53.7	0.05
0	1089	53.8	0.05
0	1091	53.9	0.05
0	1093	54	0.05
0	1095	54.1	0.05
0	1097	54.2	0.05
0	1100	54.3	0.05
0	1102	54.4	0.05
0	1105	54.5	0.05
0	1108	54.6	0.05
0	1111	54.7	0.05
0	1114	54.8	0.05
0	1116	54.9	0.05
0	1119	55	0.05
0	1122	55.1	0.05
0	1125	55.2	0.05
0	1128	55.3	0.05
0	1130	55.4	0.05
0	1133	55.5	0.05
0	1136	55.6	0.05
0	1139	55.7	0.05
0	1142	55.8	0.05
0	1144	55.9	0.05
0	1147	56	0.05
0	1150	56.1	0.05
0	1153	56.2	0.05
0	1156	56.3	0.05
0	1158	56.4	0.05
0	1161	56.5	0.05
0	1164	56.6	0.05
0	1167	56.7	0.05
0	1168	56.769634267061	0.05
0	1170	56.869634267061	0.05
0	1172	56.969634267061	0.05
0	1174	57.069634267061	0.05
0	1176	57.169634267061	0.05
0	1178	57.269634267061	0.05
0	1180	57.369634267061	0.05
0	1182	57.469634267061	0.05
0	1184	57.569634267061	0.05
0	1186	57.669634267061	0.05
0	1188	57.769634267061	0.05
0	1190	57.869634267061	0.05
0	1192	57.969634267061	0.05
0	1194	58.069634267061	0.045
0	1194	58.069634267061	0.045
0	1196	58.169634267061	0.0454
0	1198	58.269634267061	0.0458
0	1200	58.369634267061	0.0462
0	1202	58.469634267061	0.0466
0	1204	58.569634267061	0.047
0	1206	58.669634267061	0.0474
0	1208	58.769634267061	0.0478
0	1210	58.869634267061	0.0482
0	1212	58.969634267061	0.0486
0	1214	59.069634267061	0.049
0	1216	59.169634267061	0.0494
0	1218	59.269634267061	0.0498
0	1220	59.369634267061	0.05
0	1222	59.469634267061	0.05
0	1224	59.569634267061	0.05
0	1226	59.669634267061	0.05
0	1228	59.769634267061	0.045
0	1228	59.769634267061	0.045
0	1230	59.869634267061	0.0454
0	1232	59.969634267061	0.0458
0	1234	60.069634267061	0.0462
0	1236	60.169634267061	0.0466
0	1238	60.269634267061	0.047
0	1240	60.369634267061	0.0474
0	1242	60.469634267061	0.0478
0	1244	60.569634267061	0.0482
0	1246	60.669634267061	0.0486
0	1248	60.769634267061	0.049
0	1250	60.869634267061	0.0494
0	1252	60.969634267061	0.0498
0	1254	61.069634267061	0.05
0	1256	61.169634267061	0.05
0	1258	61.269634267061	0.05
0	1260	61.369634267061	0.05
0	1262	61.469634267061	0.045
0	1262	61.469634267061	0.045
0	1264	61.569634267061	0.0454
0	1266	61.669634267061	0.0458
0	1268	61.769634267061	0.0462
0	1270	61.869634267061	0.0466
0	1272	61.969634267061	0.047
0	1274	62.069634267061	0.0474
0	1276	62.169634267061	0.0478
0	1278	62.269634267061	0.0482
0	1280	62.369634267061	0.0486
0	1282	62.469634267061	0.049
0	1284	62.569634267061	0.0494
0	1286	62.634601799731	0.04965987013068
0	1287	62.669634267061	0.04965987013068
0	1289	62.769634267061	0.04965987013068
0	1291	62.869634267061	0.04965987013068
0	1293	62.969634267061	0.04965987013068
0	1295	63.069634267061	0.04965987013068
0	1297	63.169634267061	0.04965987013068
0	1299	63.269634267061	0.04965987013068
0	1301	63.369634267061	0.04965987013068
0	1303	63.469634267061	0.04965987013068
0	1305	63.569634267061	0.04965987013068
0	1307	63.669634267061	0.04965987013068
0	1309	63.769634267061	0.04965987013068
0	1311	63.869634267061	0.04965987013068
0	1313	63.969634267061	0.04965987013068
0	1315	64.069634267061	0.04965987013068
0	1317	64.169634267061	0.04965987013068
0	1319	64.269634267061	0.04965987013068
0	1321	64.369634267061	0.04965987013068
0	1323	64.469634267061	0.04965987013068
0	1325	64.569634267061	0.04965987013068
0	1327	64.669634267061	0.04965987013068
0	1329	64.769634267061	0.04965987013068
0	1331	64.869634267061	0.04965987013068
0	1333	64.969634267061	0.04965987013068
0	1335	65.069634267061	0.04965987013068
0	1337	65.169634267061	0.04965987013068
0	1339	65.269634267061	0.04965987013068
0	1341	65.369634267061	0.04965987013068
0	1343	65.469634267061	0.04965987013068
0	1345	65.569634267061	0.04965987013068
0	1347	65.669634267061	0.04965987013068
0	1349	65.769634267061	0.04965987013068
0	1351	65.869634267061	0.04965987013068
0	1353	65.969634267061	0.04965987013068
0	1355	66.069634267061	0.04965987013068
0	1357	66.169634267061	0.04965987013068
0	1359	66.269634267061	0.04965987013068
0	1361	66.369634267061	0.04965987013068
0	1363	66.469634267061	0.04965987013068
0	1365	66.569634267061	0.04965987013068
0	1367	66.669634267061	0.04965987013068
0	1369	66.769634267061	0.04965987013068
0	1371	66.869634267061	0.04965987013068
0	1373	66.969634267061	0.04965987013068
0	1375	67.069634267061	0.04965987013068
0	1377	67.169634267061	0.04965987013068
0	1379	67.269634267061	0.04965987013068
0	1381	67.369634267061	0.04965987013068
0	1383	67.469634267061	0.04965987013068
0	1385	67.569634267061	0.04965987013068
0	1387	67.669634267061	0.04965987013068
0	1389	67.769634267061	0.04965987013068
0	1391	67.869634267061	0.04965987013068
0	1393	67.969634267061	0.04965987013068
0	1395	68.069634267061	0.04965987013068
0	1397	68.169634267061	0.04965987013068
0	1399	68.269634267061	0.04965987013068
0	1401	68.369634267061	0.04965987013068
0	1403	68.469634267061	0.04965987013068
0	1405	68.569634267061	0.04965987013068
0	1407	68.669634267061	0.04965987013068
0	1409	68.769634267061	0.04965987013068
0	1411	68.869634267061	0.04965987013068
0	1413	68.969634267061	0.04965987013068
0	1415	69.069634267061	0.04965987013068
0	1417	69.169634267061	0.04965987013068
0	1419	69.269634267061	0.04965987013068
0	1421	69.369634267061	0.04965987013068
0	1423	69.469634267061	0.04965987013068
0	1425	69.569634267061	0.04965987013068
0	1427	69.669634267061	0.04965987013068
0	1429	69.769634267061	0.04965987013068
0	1431	69.869634267061	0.04965987013068
0	1433	69.969634267061	0.04965987013068
0	1435	70.069634267061	0.04965987013068
0	1437	70.169634267061	0.04965987013068
0	1439	70.269634267061	0.04965987013068
0	1441	70.369634267061	0.04965987013068
0	1443	70.469634267061	0.04965987013068
0	1445	70.569634267061	0.04965987013068
0	1447	70.669634267061	0.04965987013068
0	1449	70.769634267061	0.04965987013068
0	1451	70.869634267061	0.04965987013068
0	1453	70.969634267061	0.04965987013068
0	1455	71.069634267061	0.04965987013068
0	1457	71.169634267061	0.04965987013068
0	1459	71.269634267061	0.04965987013068
0	1461	71.369634267061	0.04965987013068
0	1463	71.469634267061	0.04965987013068
0	1465	71.569634267061	0.04965987013068
0	1467	71.669634267061	0.04965987013068
0	1469	71.769634267061	0.04965987013068
0	1471	71.869634267061	0.04965987013068
0	1473	71.969634267061	0.04965987013068
0	1475	72.069634267061	0.04965987013068
0	1477	72.169634267061	0.04965987013068
0	1479	72.269634267061	0.04965987013068
0	1481	72.369634267061	0.04965987013068
0	1483	72.469634267061	0.04965987013068
0	1485	72.569634267061	0.04965987013068
0	1487	72.669634267061	0.04965987013068
0	1489	72.769634267061	0.04965987013068
0	1491	72.869634267061	0.04965987013068
0	1493	72.969634267061	0.04965987013068
0	1495	73.069634267061	0.04965987013068
0	1497	73.169634267061	0.04965987013068
0	1499	73.269634267061	0.04965987013068
0	1501	73.369634267061	0.04965987013068
0	1503	73.469634267061	0.04965987013068
0	1505	73.569634267061	0.04965987013068
0	1507	73.669634267061	0.04965987013068
0	1509	73.769634267061	0.04965987013068
0	1511	73.869634267061	0.04965987013068
0	1513	73.969634267061	0.04965987013068
0	1515	74.069634267061	0.04965987013068
0	1517	74.169634267061	0.04965987013068
0	1519	74.269634267061	0.04965987013068
0	1521	74.369634267061	0.04965987013068
0	1523	74.469634267061	0.04965987013068
0	1525	74.569634267061	0.04965987013068
0	1527	74.669634267061	0.04965987013068
0	1529	74.769634267061	0.04965987013068
0	1531	74.869634267061	0.04965987013068
0	1533	74.969634267061	0.04965987013068
0	1535	75.069634267061	0.04965987013068
0	1537	75.169634267061	0.04965987013068
0	1539	75.269634267061	0.04965987013068
0	1541	75.369634267061	0.04965987013068
0	1543	75.469634267061	0.04965987013068
0	1545	75.569634267061	0.04965987013068
0	1547	75.669634267061	0.04965987013068
0	1549	75.769634267061	0.04965987013068
0	1551	75.869634267061	0.04965987013068
0	1553	75.969634267061	0.04965987013068
0	1555	76.069634267061	0.04965987013068
0	1557	76.169634267061	0.04965987013068
0	1559	76.269634267061	0.04965987013068
0	1561	76.369634267061	0.04965987013068
0	1563	76.469634267061	0.04965987013068
0	1565	76.569634267061	0.04965987013068
0	1567	76.669634267061	0.04965987013068
0	1569	76.764892670907	0.04965987013068
0	1570	76.769634267061	0.049678836515296
0	1572	76.849925138237	0.05
0	1573	76.869634267061	0.05
0	1575	76.969634267061	0.05
0	1577	77.069634267061	0.05
0	1579	77.169634267061	0.05
0	1581	77.269634267061	0.05
0	1583	77.369634267061	0.05
0	1585	77.469634267061	0.05
0	1587	77.569634267061	0.05
0	1589	77.669634267061	0.05
0	1591	77.769634267061	0.05
0	1593	77.869634267061	0.05
0	1595	77.969634267061	0.05
0	1597	78.069634267061	0.05
0	1599	78.169634267061	0.05
0	1601	78.269634267061	0.05
0	1603	78.369634267061	0.05
0	1605	78.469634267061	0.05
0	1607	78.569634267061	0.05
0	1609	78.669634267061	0.05
0	1611	78.769634267061	0.05
0	1613	78.869634267061	0.05
0	1615	78.969634267061	0.05
0	1617	78.98749829331	0.05
0	1618	79.069634267061	0.05
0	1620	79.169634267061	0.05
0	1622	79.269634267061	0.05
0	1624	79.369634267061	0.05
0	1626	79.469634267061	0.05
0	1628	79.569634267061	0.05
0	1630	79.669634267061	0.05
0	1632	79.769634267061	0.05
0	1634	79.869634267061	0.05
0	1636	79.969634267061	0.045
0	1636	79.969634267061	0.045
0	1638	80.069634267061	0.045
0	1640	80.169634267061	0.045
0	1642	80.269634267061	0.045
0	1644	80.369634267061	0.045
0	1646	80.469634267061	0.045
0	1648	80.569634267061	0.045
0	1650	80.669634267061	0.045
0	1652	80.769634267061	0.045
0	1654	80.869634267061	0.045
0	1656	80.969634267061	0.045
0	1658	81.069634267061	0.045
0	1660	81.169634267061	0.045
0	1662	81.269634267061	0.045
0	1664	81.369634267061	0.045
0	1666	81.469634267061	0.045
0	1668	81.569634267061	0.045
0	1670	81.669634267061	0.0405
0	1670	81.669634267061	0.0405
0	1672	81.769634267061	0.0405
0	1674	81.869634267061	0.0405
0	1676	81.969634267061	0.0405
0	1678	82.069634267061	0.0405
0	1680	82.169634267061	0.0405
0	1682	82.269634267061	0.0405
0	1684	82.369634267061	0.0405
0	1686	82.469634267061	0.0405
0	1688	82.569634267061	0.0405
0	1690	82.669634267061	0.0405
0	1693	82.769634267061	0.0405
0	1695	82.869634267061	0.0405
0	1697	82.969634267061	0.0405
0	1699	83.069634267061	0.0405
0	1701	83.169634267061	0.0405
0	1703	83.269634267061	0.0405
0	1705	83.369634267061	0.0405
0	1707	83.469634267061	0.0405
0	1709	83.569634267061	0.0405
0	1711	83.669634267061	0.0405
0	1713	83.769634267061	0.0405
0	1715	83.869634267061	0.0405
0	1717	83.969634267061	0.0405
0	1719	84.069634267061	0.0405
0	1721	84.169634267061	0.0405
0	1723	84.269634267061	0.0405
0	1725	84.369634267061	0.0405
0	1727	84.469634267061	0.0405
0	1729	84.569634267061	0.0405
0	1731	84.669634267061	0.0405
0	1733	84.769634267061	0.0405
0	1735	84.869634267061	0.0405
0	1737	84.969634267061	0.0405
0	1739	85.069634267061	0.0405
0	1741	85.169634267061	0.0405
0	1743	85.269634267061	0.0405
0	1745	85.369634267061	0.0405
0	1747	85.469634267061	0.0405
0	1749	85.569634267061	0.0405
0	1751	85.669634267061	0.0405
0	1753	85.769634267061	0.0405
0	1755	85.869634267061	0.0405
0	1757	85.969634267061	0.0405
0	1759	86.069634267061	0.0405
0	1761	86.169634267061	0.0405
0	1763	86.269634267061	0.0405
0	1765	86.369634267061	0.0405
0	1767	86.469634267061	0.0405
0	1769	86.569634267061	0.0405
0	1771	86.669634267061	0.0405
0	1773	86.769634267061	0.0405
0	1775	86.869634267061	0.0405
0	1777	86.969634267061	0.0405
0	1779	87.069634267061	0.0405
0	1781	87.169634267061	0.0405
0	1783	87.269634267061	0.0405
0	1785	87.369634267061	0.0405
0	1787	87.469634267061	0.0405
0	1789	87.569634267061	0.0405
0	1791	87.669634267061	0.0405
0	1793	87.769634267061	0.0405
0	1795	87.869634267061	0.0405
0	1797	87.969634267061	0.0405
0	1799	88.069634267061	0.0405
0	1801	88.169634267061	0.0405
0	1803	88.269634267061	0.0405
0	1805	88.369634267061	0.0405
0	1807	88.469634267061	0.0405
0	1809	88.569634267061	0.0405
0	1811	88.669634267061	0.0405
0	1813	88.769634267061	0.0405
0	1815	88.869634267061	0.0405
0	1817	88.969634267061	0.0405
0	1819	89.069634267061	0.0405
0	1821	89.169634267061	0.0405
0	1823	89.269634267061	0.0405
0	1825	89.369634267061	0.0405
0	1827	89.469634267061	0.0405
0	1829	89.569634267061	0.0405
0	1831	89.669634267061	0.0405
0	1833	89.769634267061	0.0405
0	1835	89.869634267061	0.0405
0	1837	89.969634267061	0.0405
0	1839	90.069634267061	0.0405
0	1841	90.169634267061	0.0405
0	1843	90.269634267061	0.0405
0	1845	90.369634267061	0.0405
0	1847	90.469634267061	0.0405
0	1849	90.569634267061	0.0405
0	1851	90.669634267061	0.0405
0	1853	90.769634267061	0.0405
0	1855	90.869634267061	0.0405
0	1857	90.969634267061	0.0405
0	1859	91.069634267061	0.0405
0	1861	91.169634267061	0.0405
0	1863	91.269634267061	0.0405
0	1865	91.369634267061	0.0405
0	1867	91.469634267061	0.0405
0	1869	91.569634267061	0.0405
0	1871	91.669634267061	0.0405
0	1873	91.769634267061	0.0405
0	1875	91.869634267061	0.0405
0	1877	91.969634267061	0.0405
0	1879	92.069634267061	0.0405
0	1881	92.169634267061	0.0405
0	1883	92.269634267061	0.0405
0	1885	92.369634267061	0.0405
0	1887	92.469634267061	0.0405
0	1889	92.569634267061	0.0405
0	1891	92.669634267061	0.0405
0	1893	92.769634267061	0.0405
0	1895	92.869634267061	0.0405
0	1897	92.969634267061	0.0405
0	1899	93.069634267061	0.0405
0	1901	93.169634267061	0.0405
0	1903	93.269634267061	0.0405
0	1905	93.369634267061	0.0405
0	1907	93.469634267061	0.0405
0	1909	93.569634267061	0.0405
0	1911	93.669634267061	0.0405
0	1913	93.769634267061	0.0405
0	1915	93.869634267061	0.0405
0	1917	93.969634267061	0.0405
0	1919	94.069634267061	0.0405
0	1921	94.169634267061	0.0405
0	1923	94.269634267061	0.0405
0	1925	94.369634267061	0.0405
0	1927	94.469634267061	0.0405
0	1929	94.569634267061	0.0405
0	1931	94.669634267061	0.0405
0	1933	94.769634267061	0.0405
0	1935	94.869634267061	0.0405
0	1937	94.969634267061	0.0405
0	1939	95.069634267061	0.0405
0	1941	95.169634267061	0.0405
0	1943	95.269634267061	0.0405
0	1945	95.369634267061	0.0405
0	1947	95.469634267061	0.0405
0	1949	95.569634267061	0.0405
0	1951	95.669634267061	0.0405
0	1953	95.769634267061	0.0405
0	1955	95.869634267061	0.0405
0	1957	95.969634267061	0.0405
0	1959	96.069634267061	0.0405
0	1961	96.169634267061	0.0405
0	1963	96.269634267061	0.0405
0	1965	96.369634267061	0.0405
0	1967	96.469634267061	0.0405
0	1969	96.569634267061	0.0405
0	1971	96.669634267061	0.0405
0	1973	96.769634267061	0.0405
0	1975	96.869634267061	0.0405
0	1977	96.969634267061	0.0405
0	1979	97.069634267061	0.0405
0	1981	97.169634267061	0.0405
0	1983	97.269634267061	0.0405
0	1985	97.369634267061	0.0405
0	1987	97.469634267061	0.0405
0	1989	97.569634267061	0.0405
0	1991	97.669634267061	0.0405
0	1993	97.769634267061	0.0405
0	1995	97.869634267061	0.0405
0	1997	97.969634267061	0.0405
0	1999	98.069634267061	0.0405
0	2001	98.169634267061	0.0405
0	2003	98.269634267061	0.0405
0	2005	98.369634267061	0.0405
0	2007	98.469634267061	0.0405
0	2009	98.569634267061	0.0405
0	2011	98.669634267061	0.0405
0	2013	98.769634267061	0.0405
0	2015	98.869634267061	0.0405
0	2017	98.969634267061	0.0405
0	2019	99.069634267061	0.0405
0	2021	99.169634267061	0.0405
0	2023	99.269634267061	0.0405
0	2025	99.369634267061	0.0405
0	2027	99.469634267061	0.0405
0	2029	99.569634267061	0.0405
0	2031	99.669634267061	0.0405
0	2033	99.769634267061	0.0405
0	2035	99.869634267061	0.0405
0	2037	99.969634267061	0.0405
0	2039	100.069634267061	0.0405
0	2041	100.169634267061	0.0405
0	2043	100.269634267061	0.0405
0	2045	100.369634267061	0.0405
0	2047	100.469634267061	0.0405
0	2049	100.569634267061	0.0405
0	2051	100.669634267061	0.0405
0	2053	100.769634267061	0.0405
0	2055	100.869634267061	0.0405
0	2057	100.969634267061	0.0405
0	2059	101.069634267061	0.0405
0	2061	101.169634267061	0.0405
0	2063	101.269634267061	0.0405
0	2065	101.369634267061	0.0405
0	2067	101.469634267061	0.0405
0	2069	101.569634267061	0.0405
0	2071	101.669634267061	0.0405
0	2073	101.769634267061	0.0405
0	2075	101.869634267061	0.0405
0	2077	101.969634267061	0.0405
0	2079	102.069634267061	0.0405
0	2081	102.169634267061	0.0405
0	2083	102.269634267061	0.0405
0	2085	102.369634267061	0.0405
0	2087	102.469634267061	0.0405
0	2089	102.569634267061	0.0405
0	2091	102.669634267061	0.0405
0	2093	102.769634267061	0.0405
0	2095	102.869634267061	0.0405
0	2097	102.969634267061	0.0405
0	2099	103.069634267061	0.0405
0	2101	103.169634267061	0.0405
0	2103	103.269634267061	0.0405
0	2105	103.369634267061	0.0405
0	2107	103.469634267061	0.0405
0	2109	103.569634267061	0.0405
0	2111	103.669634267061	0.0405
0	2113	103.769634267061	0.0405
0	2115	103.869634267061	0.0405
0	2117	103.969634267061	0.0405
0	2119	104.069634267061	0.0405
0	2121	104.169634267061	0.0405
0	2123	104.269634267061	0.0405
0	2125	104.369634267061	0.0405
0	2127	104.469634267061	0.0405
0	2129	104.569634267061	0.0405
0	2131	104.669634267061	0.0405
0	2133	104.769634267061	0.0405
0	2135	104.869634267061	0.0405
0	2137	104.969634267061	0.0405
0	2139	105.069634267061	0.0405
0	2141	105.169634267061	0.0405
0	2143	105.269634267061	0.0405
0	2145	105.369634267061	0.0405
0	2147	105.469634267061	0.0405
0	2149	105.569634267061	0.0405
0	2151	105.669634267061	0.0405
0	2153	105.769634267061	0.0405
0	2155	105.869634267061	0.0405
0	2157	105.969634267061	0.0405
0	2159	106.069634267061	0.0405
0	2161	106.169634267061	0.0405
0	2163	106.269634267061	0.0405
0	2165	106.369634267061	0.0405
0	2167	106.469634267061	0.0405
0	2169	106.569634267061	0.0405
0	2171	106.669634267061	0.0405
0	2173	106.769634267061	0.0405
0	2175	106.869634267061	0.0405
0	2177	106.969634267061	0.0405
0	2179	107.069634267061	0.0405
0	2181	107.169634267061	0.0405
0	2183	107.269634267061	0.0405
0	2185	107.369634267061	0.0405
0	2187	107.469634267061	0.0405
0	2189	107.569634267061	0.0405
0	2191	107.669634267061	0.0405
0	2193	107.769634267061	0.0405
0	2195	107.869634267061	0.0405
0	2197	107.969634267061	0.0405
0	2199	108.069634267061	0.0405
0	2201	108.169634267061	0.0405
0	2203	108.269634267061	0.0405
0	2205	108.369634267061	0.0405
0	2207	108.469634267061	0.0405
0	2209	108.569634267061	0.0405
0	2211	108.669634267061	0.0405
0	2213	108.769634267061	0.0405
0	2215	108.869634267061	0.0405
0	2217	108.969634267061	0.0405
0	2219	109.069634267061	0.0405
0	2221	109.169634267061	0.0405
0	2223	109.269634267061	0.0405
0	2225	109.369634267061	0.0405
0	2227	109.469634267061	0.0405
0	2229	109.569634267061	0.0405
0	2231	109.669634267061	0.0405
0	2233	109.769634267061	0.0405
0	2235	109.869634267061	0.0405
0	2237	109.969634267061	0.0405
0	2239	110.069634267061	0.0405
0	2241	110.169634267061	0.0405
0	2243	110.269634267061	0.0405
0	2245	110.369634267061	0.0405
0	2247	110.469634267061	0.0405
0	2249	110.569634267061	0.0405
0	2251	110.669634267061	0.0405
0	2253	110.769634267061	0.0405
0	2255	110.869634267061	0.0405
0	2257	110.969634267061	0.0405
0	2259	111.069634267061	0.0405
0	2261	111.169634267061	0.0405
0	2263	111.269634267061	0.0405
0	2265	111.369634267061	0.0405
0	2267	111.469634267061	0.0405
0	2269	111.569634267061	0.0405
0	2271	111.669634267061	0.0405
0	2273	111.769634267061	0.0405
0	2275	111.869634267061	0.0405
0	2277	111.969634267061	0.0405
0	2279	112.069634267061	0.0405
0	2281	112.169634267061	0.0405
0	2283	112.269634267061	0.0405
0	2285	112.369634267061	0.0405
0	2287	112.469634267061	0.0405
0	2289	112.569634267061	0.0405
0	2291	112.669634267061	0.0405
0	2293	112.769634267061	0.0405
0	2295	112.869634267061	0.0405
0	2297	112.969634267061	0.0405
0	2299	113.069634267061	0.0405
0	2301	113.169634267061	0.0405
0	2303	113.269634267061	0.0405
0	2305	113.369634267061	0.0405
0	2307	113.469634267061	0.0405
0	2309	113.569634267061	0.0405
0	2311	113.669634267061	0.0405
0	2313	113.769634267061	0.0405
0	2315	113.869634267061	0.0405
0	2317	113.969634267061	0.0405
0	2319	114.069634267061	0.0405
0	2321	114.169634267061	0.0405
0	2323	114.269634267061	0.0405
0	2325	114.369634267061	0.0405
0	2327	114.469634267061	0.0405
0	2329	114.569634267061	0.0405
0	2331	114.669634267061	0.0405
0	2334	114.769634267061	0.0405
0	2336	114.869634267061	0.0405
0	2338	114.969634267061	0.0405
0	2340	115.069634267061	0.0405
0	2343	115.169634267061	0.0405
0	2345	115.269634267061	0.0405
0	2347	115.369634267061	0.0405
0	2349	115.469634267061	0.0405
0	2351	115.569634267061	0.0405
0	2353	115.669634267061	0.0405
0	2355	115.769634267061	0.0405
0	2357	115.869634267061	0.0405
0	2359	115.969634267061	0.0405
0	2361	116.069634267061	0.0405
0	2363	116.169634267061	0.0405
0	2365	116.269634267061	0.0405
0	2367	116.369634267061	0.0405
0	2369	116.469634267061	0.0405
0	2371	116.569634267061	0.0405
0	2373	116.669634267061	0.0405
0	2375	116.769634267061	0.0405
0	2377	116.869634267061	0.0405
0	2379	116.969634267061	0.0405
0	2381	117.069634267061	0.0405
0	2383	117.169634267061	0.0405
0	2385	117.269634267061	0.0405
0	2387	117.369634267061	0.0405
0	2389	117.469634267061	0.0405
0	2391	117.569634267061	0.0405
0	2393	117.669634267061	0.0405
0	2395	117.769634267061	0.0405
0	2397	117.869634267061	0.0405
0	2399	117.969634267061	0.0405
0	2401	118.069634267061	0.0405
0	2403	118.169634267061	0.0405
0	2405	118.269634267061	0.0405
0	2407	118.369634267061	0.0405
0	2409	118.469634267061	0.0405
0	2411	118.569634267061	0.0405
0	2413	118.669634267061	0.0405
0	2415	118.769634267061	0.0405
0	2417	118.869634267061	0.0405
0	2419	118.969634267061	0.0405
0	2421	119.069634267061	0.0405
0	2423	119.169634267061	0.0405
0	2425	119.269634267061	0.0405
0	2427	119.369634267061	0.0405
0	2429	119.469634267061	0.0405
0	2431	119.569634267061	0.0405
0	2433	119.669634267061	0.0405
0	2435	119.769634267061	0.0405
0	2437	119.869634267061	0.0405
0	2439	119.969634267061	0.0405
0	2441	120.069634267061	0.0405
0	2443	120.169634267061	0.0405
0	2445	120.269634267061	0.0405
0	2447	120.369634267061	0.0405
0	2449	120.469634267061	0.0405
0	2451	120.569634267061	0.0405
0	2453	120.669634267061	0.0405
0	2455	120.769634267061	0.0405
0	2457	120.869634267061	0.0405
0	2459	120.969634267061	0.0405
0	2461	121.069634267061	0.0405
0	2463	121.169634267061	0.0405
0	2465	121.269634267061	0.0405
0	2467	121.369634267061	0.0405
0	2469	121.469634267061	0.0405
0	2471	121.569634267061	0.0405
0	2473	121.669634267061	0.0405
0	2475	121.769634267061	0.0405
0	2477	121.869634267061	0.0405
0	2479	121.969634267061	0.0405
0	2481	122.069634267061	0.0405
0	2483	122.169634267061	0.0405
0	2485	122.269634267061	0.0405
0	2487	122.369634267061	0.0405
0	2489	122.469634267061	0.0405
0	2491	122.569634267061	0.0405
0	2493	122.669634267061	0.0405
0	2495	122.769634267061	0.0405
0	2497	122.869634267061	0.0405
0	2499	122.969634267061	0.0405
0	2501	123.069634267061	0.0405
0	2503	123.169634267061	0.0405
0	2505	123.269634267061	0.0405
0	2507	123.369634267061	0.0405
0	2509	123.469634267061	0.0405
0	2511	123.569634267061	0.0405
0	2513	123.669634267061	0.0405
0	2515	123.769634267061	0.0405
0	2517	123.869634267061	0.0405
0	2519	123.969634267061	0.0405
0	2521	124.069634267061	0.0405
0	2523	124.169634267061	0.0405
0	2525	124.269634267061	0.0405
0	2527	124.369634267061	0.0405
0	2529	124.469634267061	0.0405
0	2531	124.569634267061	0.0405
0	2533	124.669634267061	0.0405
0	2535	124.769634267061	0.0405
0	2537	124.869634267061	0.0405
0	2539	124.969634267061	0.0405
0	2541	125.069634267061	0.0405
0	2543	125.169634267061	0.0405
0	2545	125.269634267061	0.0405
0	2547	125.369634267061	0.0405
0	2549	125.469634267061	0.0405
0	2551	125.569634267061	0.0405
0	2553	125.669634267061	0.0405
0	2555	125.769634267061	0.0405
0	2557	125.869634267061	0.0405
0	2559	125.969634267061	0.0405
0	2561	126.069634267061	0.0405
0	2563	126.169634267061	0.0405
0	2565	126.269634267061	0.0405
0	2567	126.369634267061	0.0405
0	2569	126.469634267061	0.0405
0	2571	126.569634267061	0.0405
0	2573	126.669634267061	0.0405
0	2575	126.769634267061	0.0405
0	2577	126.869634267061	0.0405
0	2579	126.969634267061	0.0405
0	2581	127.069634267061	0.0405
0	2583	127.169634267061	0.0405
0	2585	127.269634267061	0.0405
0	2587	127.369634267061	0.0405
0	2589	127.469634267061	0.0405
0	2591	127.569634267061	0.0405
0	2593	127.669634267061	0.0405
0	2595	127.769634267061	0.0405
0	2597	127.869634267061	0.0405
0	2599	127.969634267061	0.0405
0	2601	128.069634267061	0.0405
0	2603	128.169634267061	0.0405
0	2605	128.269634267061	0.0405
0	2607	128.369634267061	0.0405
0	2609	128.469634267061	0.0405
0	2611	128.569634267061	0.0405
0	2613	128.669634267061	0.0405
0	2615	128.769634267061	0.0405
0	2617	128.869634267061	0.0405
0	2619	128.969634267061	0.0405
0	2621	129.069634267061	0.0405
0	2623	129.169634267061	0.0405
0	2625	129.269634267061	0.0405
0	2627	129.369634267061	0.0405
0	2629	129.469634267061	0.0405
0	2631	129.569634267061	0.0405
0	2633	129.669634267061	0.0405
0	2635	129.769634267061	0.0405
0	2637	129.869634267061	0.0405
0	2639	129.969634267061	0.0405
0	2641	130.069634267061	0.0405
0	2643	130.169634267061	0.0405
0	2645	130.269634267061	0.0405
0	2647	130.369634267061	0.0405
0	2649	130.469634267061	0.0405
0	2651	130.569634267061	0.0405
0	2653	130.669634267061	0.0405
0	2655	130.769634267061	0.0405
0	2657	130.869634267061	0.0405
0	2659	130.969634267061	0.0405
0	2661	131.069634267061	0.0405
0	2663	131.169634267061	0.0405
0	2665	131.269634267061	0.0405
0	2667	131.369634267061	0.0405
0	2669	131.469634267061	0.0405
0	2671	131.569634267061	0.0405
0	2673	131.669634267061	0.0405
0	2675	131.769634267061	0.0405
0	2677	131.869634267061	0.0405
0	2679	131.969634267061	0.0405
0	2681	132.069634267061	0.0405
0	2683	132.169634267061	0.0405
0	2685	132.269634267061	0.0405
0	2687	132.369634267061	0.0405
0	2689	132.469634267061	0.0405
0	2691	132.569634267061	0.0405
0	2693	132.669634267061	0.0405
0	2695	132.769634267061	0.0405
0	2697	132.869634267061	0.0405
0	2699	132.969634267061	0.0405
0	2701	133.069634267061	0.0405
0	2703	133.169634267061	0.0405
0	2705	133.269634267061	0.0405
0	2707	133.369634267061	0.0405
0	2709	133.469634267061	0.0405
0	2711	133.569634267061	0.0405
0	2713	133.669634267061	0.0405
0	2715	133.769634267061	0.0405
0	2717	133.869634267061	0.0405
0	2719	133.969634267061	0.0405
0	2721	134.069634267061	0.0405
0	2723	134.169634267061	0.0405
0	2725	134.269634267061	0.0405
0	2727	134.369634267061	0.0405
0	2729	134.469634267061	0.0405
0	2731	134.569634267061	0.0405
0	2733	134.669634267061	0.0405
0	2735	134.769634267061	0.0405
0	2737	134.869634267061	0.0405
0	2739	134.969634267061	0.0405
0	2741	135.069634267061	0.0405
0	2743	135.169634267061	0.0405
0	2745	135.269634267061	0.0405
0	2747	135.369634267061	0.0405
0	2749	135.469634267061	0.0405
0	2751	135.569634267061	0.0405
0	2753	135.669634267061	0.0405
0	2755	135.769634267061	0.0405
0	2756	135.852009106764	0.0405
0	2758	135.952009106764	0.03645
0	2758	135.952009106764	0.03645
0	2760	136.052009106764	0.03645
0	2762	136.152009106764	0.03645
0	2764	136.252009106764	0.03645
0	2767	136.352009106764	0.03645
0	2770	136.452009106764	0.03645
0	2773	136.552009106764	0.03645
0	2776	136.652009106764	0.03645
0	2778	136.752009106764	0.03645
0	2781	136.852009106764	0.03645
0	2784	136.952009106764	0.03645
0	2787	137.052009106764	0.03645
0	2790	137.152009106764	0.03645
0	2792	137.252009106764	0.032805
0	2792	137.252009106764	0.032805
0	2795	137.352009106764	0.032805
0	2798	137.452009106764	0.032805
0	2801	137.552009106764	0.032805
0	2804	137.652009106764	0.032805
0	2806	137.752009106764	0.032805
0	2809	137.852009106764	0.032805
0	2812	137.952009106764	0.032805
0	2815	138.052009106764	0.032805
0	2818	138.152009106764	0.032805
0	2820	138.252009106764	0.032805
0	2823	138.352009106764	0.032805
0	2826	138.452009106764	0.0295245
0	2826	138.452009106764	0.0295245
0	2829	138.552009106764	0.0295245
0	2832	138.652009106764	0.0295245
0	2834	138.752009106764	0.0295245
0	2837	138.852009106764	0.0295245
0	2840	138.952009106764	0.0295245
0	2843	139.052009106764	0.0295245
0	2846	139.152009106764	0.0295245
0	2848	139.252009106764	0.0295245
0	2851	139.352009106764	0.0295245
0	2854	139.452009106764	0.0295245
0	2857	139.552009106764	0.0295245
0	2860	139.652009106764	0.02657205
0	2860	139.652009106764	0.02657205
0	2862	139.752009106764	0.02657205
0	2865	139.852009106764	0.02657205
0	2868	139.952009106764	0.02657205
0	2871	140.052009106764	0.02657205
0	2874	140.152009106764	0.02657205
0	2876	140.252009106764	0.02657205
0	2879	140.352009106764	0.02657205
0	2882	140.452009106764	0.02657205
0	2885	140.552009106764	0.02657205
0	2887	140.574864022709	0.02657205
0	2889	140.652009106764	0.02688063033622
0	2891	140.681851522709	0.027
0	2892	140.752009106764	0.02728063033622
0	2895	140.798460926057	0.027466437613392
0	2896	140.852009106764	0.027466437613392
0	2899	140.952009106764	0.027466437613392
0	2902	141.052009106764	0.027466437613392
0	2905	141.152009106764	0.027466437613392
0	2907	141.252009106764	0.027466437613392
0	2910	141.352009106764	0.027466437613392
0	2913	141.452009106764	0.027466437613392
0	2916	141.552009106764	0.027466437613392
0	2919	141.652009106764	0.027466437613392
0	2922	141.752009106764	0.027466437613392
0	2924	141.852009106764	0.027466437613392
0	2926	141.952009106764	0.027466437613392
0	2928	142.052009106764	0.024719793852053
0	2928	142.052009106764	0.024719793852053
0	2930	142.152009106764	0.024719793852053
0	2932	142.252009106764	0.024719793852053
0	2934	142.352009106764	0.024719793852053
0	2936	142.452009106764	0.024719793852053
0	2938	142.552009106764	0.024719793852053
0	2941	142.652009106764	0.024719793852053
0	2944	142.752009106764	0.024719793852053
0	2947	142.852009106764	0.024719793852053
0	2949	142.952009106764	0.024719793852053
0	2952	143.052009106764	0.024719793852053
0	2955	143.152009106764	0.024719793852053
0	2958	143.252009106764	0.024719793852053
0	2961	143.352009106764	0.024719793852053
0	2963	143.452009106764	0.024719793852053
0	2966	143.552009106764	0.024719793852053
0	2969	143.652009106764	0.024719793852053
0	2972	143.752009106764	0.024719793852053
0	2975	143.852009106764	0.024719793852053
0	2977	143.952009106764	0.024719793852053
0	2980	144.052009106764	0.024719793852053
0	2983	144.152009106764	0.024719793852053
0	2986	144.252009106764	0.024719793852053
0	2989	144.352009106764	0.024719793852053
0	2991	144.452009106764	0.024719793852053
0	2994	144.552009106764	0.024719793852053
0	2997	144.652009106764	0.024719793852053
0	3000	144.752009106764	0.024719793852053
0	3003	144.852009106764	0.024719793852053
0	3006	144.952009106764	0.024719793852053
0	3009	145.052009106764	0.024719793852053
0	3011	145.152009106764	0.024719793852053
0	3014	145.252009106764	0.024719793852053
0	3017	145.352009106764	0.024719793852053
0	3020	145.452009106764	0.024719793852053
0	3023	145.552009106764	0.024719793852053
0	3025	145.652009106764	0.024719793852053
0	3028	145.752009106764	0.024719793852053
0	3031	145.852009106764	0.024719793852053
0	3034	145.952009106764	0.024719793852053
0	3037	146.052009106764	0.024719793852053
0	3040	146.152009106764	0.024719793852053
0	3042	146.252009106764	0.024719793852053
0	3045	146.352009106764	0.024719793852053
0	3048	146.452009106764	0.024719793852053
0	3051	146.552009106764	0.024719793852053
0	3054	146.652009106764	0.024719793852053
0	3056	146.752009106764	0.024719793852053
0	3059	146.852009106764	0.024719793852053
0	3062	146.952009106764	0.024719793852053
0	3065	147.052009106764	0.024719793852053
0	3068	147.152009106764	0.024719793852053
0	3071	147.252009106764	0.024719793852053
0	3073	147.352009106764	0.024719793852053
0	3076	147.452009106764	0.024719793852053
0	3079	147.552009106764	0.024719793852053
0	3082	147.652009106764	0.024719793852053
0	3085	147.752009106764	0.024719793852053
0	3087	147.852009106764	0.024719793852053
0	3090	147.952009106764	0.024719793852053
0	3093	148.052009106764	0.024719793852053
0	3096	148.152009106764	0.024719793852053
0	3099	148.252009106764	0.024719793852053
0	3102	148.352009106764	0.024719793852053
0	3104	148.452009106764	0.024719793852053
0	3107	148.552009106764	0.024719793852053
0	3110	148.652009106764	0.024719793852053
0	3113	148.752009106764	0.024719793852053
0	3116	148.852009106764	0.024719793852053
0	3118	148.952009106764	0.024719793852053
0	3121	149.052009106764	0.024719793852053
0	3124	149.152009106764	0.024719793852053
0	3127	149.252009106764	0.024719793852053
0	3130	149.352009106764	0.024719793852053
0	3132	149.452009106764	0.022247814466848
0	3132	149.452009106764	0.022247814466848
0	3135	149.552009106764	0.022247814466848
0	3138	149.652009106764	0.022247814466848
0	3141	149.752009106764	0.022247814466848
0	3144	149.852009106764	0.022247814466848
0	3146	149.952009106764	0.022247814466848
0	3149	150.052009106764	0.022247814466848
0	3152	150.152009106764	0.022247814466848
0	3155	150.252009106764	0.022247814466848
0	3158	150.352009106764	0.022247814466848
0	3160	150.452009106764	0.022247814466848
0	3163	150.552009106764	0.022247814466848
0	3166	150.652009106764	0.020023033020163
0	3166	150.652009106764	0.020023033020163
0	3169	150.752009106764	0.020023033020163
0	3171	150.852009106764	0.020023033020163
0	3173	150.952009106764	0.020023033020163
0	3175	151.052009106764	0.020023033020163
0	3177	151.152009106764	0.020023033020163
0	3179	151.252009106764	0.020023033020163
0	3181	151.352009106764	0.020023033020163
0	3183	151.452009106764	0.020023033020163
0	3185	151.552009106764	0.020023033020163
0	3187	151.652009106764	0.020023033020163
0	3189	151.752009106764	0.020023033020163
0	3191	151.852009106764	0.020023033020163
0	3193	151.952009106764	0.020023033020163
0	3195	152.052009106764	0.020023033020163
0	3197	152.152009106764	0.020023033020163
0	3199	152.252009106764	0.020023033020163
0	3201	152.352009106764	0.020023033020163
0	3203	152.452009106764	0.020023033020163
0	3205	152.552009106764	0.020023033020163
0	3207	152.652009106764	0.020023033020163
0	3209	152.752009106764	0.020023033020163
0	3211	152.852009106764	0.020023033020163
0	3213	152.952009106764	0.020023033020163
0	3215	153.052009106764	0.020023033020163
0	3217	153.152009106764	0.020023033020163
0	3219	153.252009106764	0.020023033020163
0	3221	153.352009106764	0.020023033020163
0	3223	153.452009106764	0.020023033020163
0	3225	153.552009106764	0.020023033020163
0	3227	153.652009106764	0.020023033020163
0	3229	153.752009106764	0.020023033020163
0	3231	153.852009106764	0.020023033020163
0	3233	153.952009106764	0.020023033020163
0	3235	154.052009106764	0.020023033020163
0	3237	154.152009106764	0.020023033020163
0	3239	154.252009106764	0.020023033020163
0	3241	154.352009106764	0.020023033020163
0	3243	154.452009106764	0.020023033020163
0	3245	154.552009106764	0.020023033020163
0	3247	154.652009106764	0.020023033020163
0	3249	154.752009106764	0.020023033020163
0	3251	154.852009106764	0.020023033020163
0	3253	154.952009106764	0.020023033020163
0	3255	155.052009106764	0.020023033020163
0	3257	155.152009106764	0.020023033020163
0	3259	155.252009106764	0.020023033020163
0	3261	155.352009106764	0.020023033020163
0	3263	155.452009106764	0.020023033020163
0	3265	155.552009106764	0.020023033020163
0	3267	155.652009106764	0.020023033020163
0	3269	155.752009106764	0.020023033020163
0	3271	155.852009106764	0.020023033020163
0	3273	155.952009106764	0.020023033020163
0	3275	156.052009106764	0.020023033020163
0	3277	156.152009106764	0.020023033020163
0	3279	156.252009106764	0.020023033020163
0	3281	156.352009106764	0.020023033020163
0	3283	156.452009106764	0.020023033020163
0	3285	156.552009106764	0.020023033020163
0	3287	156.652009106764	0.020023033020163
0	3289	156.752009106764	0.020023033020163
0	3291	156.852009106764	0.020023033020163
0	3293	156.952009106764	0.020023033020163
0	3295	157.052009106764	0.020023033020163
0	3297	157.152009106764	0.020023033020163
0	3299	157.252009106764	0.020023033020163
0	3301	157.352009106764	0.020023033020163
0	3303	157.452009106764	0.020023033020163
0	3305	157.552009106764	0.020023033020163
0	3307	157.652009106764	0.020023033020163
0	3309	157.752009106764	0.020023033020163
0	3311	157.852009106764	0.020023033020163
0	3313	157.927313113916	0.020023033020163
0	3315	158.027313113916	0.020023033020163
0	3317	158.127313113916	0.020023033020163
0	3319	158.227313113916	0.020023033020163
0	3321	158.327313113916	0.020023033020163
0	3323	158.427313113916	0.020023033020163
0	3325	158.527313113916	0.020023033020163
0	3327	158.627313113916	0.020023033020163
0	3329	158.727313113916	0.020023033020163
0	3331	158.827313113916	0.020023033020163
0	3333	158.927313113916	0.020023033020163
0	3335	159.027313113916	0.020023033020163
0	3337	159.127313113916	0.020023033020163
0	3339	159.227313113916	0.020023033020163
0	3341	159.327313113916	0.020023033020163
0	3343	159.427313113916	0.020023033020163
0	3345	159.527313113916	0.020023033020163
0	3347	159.627313113916	0.020023033020163
0	3349	159.727313113916	0.020023033020163
0	3351	159.827313113916	0.020023033020163
0	3353	159.927313113916	0.020023033020163
0	3355	160.027313113916	0.020023033020163
0	3357	160.127313113916	0.020023033020163
0	3359	160.227313113916	0.020023033020163
0	3361	160.327313113916	0.020023033020163
0	3363	160.427313113916	0.020023033020163
0	3365	160.527313113916	0.020023033020163
0	3367	160.627313113916	0.020023033020163
0	3369	160.727313113916	0.020023033020163
0	3371	160.827313113916	0.020023033020163
0	3373	160.927313113916	0.020023033020163
0	3375	161.027313113916	0.020023033020163
0	3377	161.127313113916	0.020023033020163
0	3379	161.227313113916	0.020023033020163
0	3381	161.327313113916	0.020023033020163
0	3383	161.427313113916	0.020023033020163
0	3385	161.527313113916	0.020023033020163
0	3387	161.627313113916	0.020023033020163
0	3389	161.727313113916	0.020023033020163
0	3391	161.827313113916	0.020023033020163
0	3393	161.927313113916	0.020023033020163
0	3395	162.027313113916	0.020023033020163
0	3397	162.127313113916	0.020023033020163
0	3399	162.227313113916	0.020023033020163
0	3401	162.327313113916	0.020023033020163
0	3403	162.427313113916	0.020023033020163
0	3405	162.527313113916	0.020023033020163
0	3407	162.627313113916	0.020023033020163
0	3409	162.727313113916	0.020023033020163
0	3411	162.827313113916	0.020023033020163
0	3413	162.927313113916	0.020023033020163
0	3415	163.027313113916	0.020023033020163
0	3417	163.127313113916	0.020023033020163
0	3419	163.227313113916	0.020023033020163
0	3421	163.327313113916	0.020023033020163
0	3423	163.427313113916	0.020023033020163
0	3425	163.527313113916	0.020023033020163
0	3427	163.627313113916	0.020023033020163
0	3429	163.727313113916	0.020023033020163
0	3431	163.827313113916	0.020023033020163
0	3433	163.927313113916	0.020023033020163
0	3435	164.027313113916	0.020023033020163
0	3437	164.127313113916	0.020023033020163
0	3439	164.227313113916	0.020023033020163
0	3441	164.327313113916	0.020023033020163
0	3443	164.427313113916	0.020023033020163
0	3445	164.527313113916	0.020023033020163
0	3447	164.627313113916	0.020023033020163
0	3449	164.727313113916	0.020023033020163
0	3451	164.827313113916	0.020023033020163
0	3453	164.927313113916	0.020023033020163
0	3455	165.027313113916	0.020023033020163
0	3457	165.127313113916	0.020023033020163
0	3459	165.227313113916	0.020023033020163
0	3461	165.327313113916	0.020023033020163
0	3463	165.427313113916	0.020023033020163
0	3465	165.527313113916	0.020023033020163
0	3467	165.627313113916	0.020023033020163
0	3469	165.727313113916	0.020023033020163
0	3471	165.827313113916	0.020023033020163
0	3473	165.927313113916	0.020023033020163
0	3475	166.027313113916	0.020023033020163
0	3477	166.127313113916	0.020023033020163
0	3479	166.227313113916	0.020023033020163
0	3481	166.327313113916	0.020023033020163
0	3483	166.427313113916	0.020023033020163
0	3485	166.527313113916	0.020023033020163
0	3487	166.627313113916	0.020023033020163
0	3489	166.727313113916	0.020023033020163
0	3491	166.827313113916	0.020023033020163
0	3493	166.927313113916	0.020023033020163
0	3495	167.027313113916	0.020023033020163
0	3497	167.127313113916	0.020023033020163
0	3499	167.227313113916	0.020023033020163
0	3501	167.327313113916	0.020023033020163
0	3503	167.427313113916	0.020023033020163
0	3505	167.527313113916	0.020023033020163
0	3507	167.627313113916	0.020023033020163
0	3509	167.727313113916	0.020023033020163
0	3511	167.827313113916	0.020023033020163
0	3513	167.927313113916	0.020023033020163
0	3515	168.027313113916	0.020023033020163
0	3517	168.127313113916	0.020023033020163
0	3519	168.227313113916	0.020023033020163
0	3521	168.327313113916	0.020023033020163
0	3523	168.427313113916	0.020023033020163
0	3525	168.527313113916	0.020023033020163
0	3527	168.627313113916	0.020023033020163
0	3529	168.727313113916	0.020023033020163
0	3531	168.827313113916	0.020023033020163
0	3533	168.927313113916	0.020023033020163
0	3535	169.027313113916	0.020023033020163
0	3537	169.127313113916	0.020023033020163
0	3539	169.227313113916	0.020023033020163
0	3541	169.327313113916	0.020023033020163
0	3543	169.427313113916	0.020023033020163
0	3545	169.527313113916	0.020023033020163
0	3547	169.627313113916	0.020023033020163
0	3549	169.727313113916	0.020023033020163
0	3551	169.827313113916	0.020023033020163
0	3553	169.927313113916	0.020023033020163
0	3555	170.027313113916	0.020023033020163
0	3557	170.127313113916	0.020023033020163
0	3559	170.227313113916	0.020023033020163
0	3561	170.327313113916	0.020023033020163
0	3563	170.427313113916	0.020023033020163
0	3565	170.527313113916	0.020023033020163
0	3567	170.627313113916	0.020023033020163
0	3569	170.727313113916	0.020023033020163
0	3571	170.827313113916	0.020023033020163
0	3573	170.927313113916	0.020023033020163
0	3575	171.027313113916	0.020023033020163
0	3577	171.127313113916	0.020023033020163
0	3579	171.227313113916	0.020023033020163
0	3581	171.327313113916	0.020023033020163
0	3583	171.427313113916	0.020023033020163
0	3585	171.527313113916	0.020023033020163
0	3587	171.627313113916	0.020023033020163
0	3589	171.727313113916	0.020023033020163
0	3591	171.827313113916	0.020023033020163
0	3593	171.927313113916	0.020023033020163
0	3595	172.027313113916	0.020023033020163
0	3597	172.127313113916	0.020023033020163
0	3599	172.227313113916	0.020023033020163
0	3601	172.327313113916	0.020023033020163
0	3603	172.427313113916	0.020023033020163
0	3605	172.527313113916	0.020023033020163
0	3607	172.627313113916	0.020023033020163
0	3609	172.727313113916	0.020023033020163
0	3611	172.827313113916	0.020023033020163
0	3613	172.927313113916	0.020023033020163
0	3615	173.027313113916	0.020023033020163
0	3617	173.127313113916	0.020023033020163
0	3619	173.227313113916	0.020023033020163
0	3621	173.327313113916	0.020023033020163
0	3623	173.427313113916	0.020023033020163
0	3625	173.527313113916	0.020023033020163
0	3627	173.627313113916	0.020023033020163
0	3629	173.727313113916	0.020023033020163
0	3631	173.827313113916	0.020023033020163
0	3633	173.927313113916	0.020023033020163
0	3635	174.027313113916	0.020023033020163
0	3637	174.127313113916	0.020023033020163
0	3639	174.227313113916	0.020023033020163
0	3641	174.327313113916	0.020023033020163
0	3643	174.427313113916	0.020023033020163
0	3645	174.527313113916	0.020023033020163
0	3647	174.627313113916	0.020023033020163
0	3649	174.727313113916	0.020023033020163
0	3651	174.827313113916	0.020023033020163
0	3653	174.927313113916	0.020023033020163
0	3655	175.027313113916	0.020023033020163
0	3657	175.127313113916	0.020023033020163
0	3659	175.227313113916	0.020023033020163
0	3661	175.327313113916	0.020023033020163
0	3663	175.427313113916	0.020023033020163
0	3665	175.527313113916	0.020023033020163
0	3667	175.627313113916	0.020023033020163
0	3669	175.727313113916	0.020023033020163
0	3671	175.827313113916	0.020023033020163
0	3673	175.927313113916	0.020023033020163
0	3675	176.027313113916	0.020023033020163
0	3677	176.127313113916	0.020023033020163
0	3679	176.227313113916	0.020023033020163
0	3681	176.327313113916	0.020023033020163
0	3683	176.427313113916	0.020023033020163
0	3685	176.527313113916	0.020023033020163
0	3687	176.627313113916	0.020023033020163
0	3689	176.727313113916	0.020023033020163
0	3691	176.827313113916	0.020023033020163
0	3693	176.927313113916	0.020023033020163
0	3695	177.027313113916	0.020023033020163
0	3697	177.127313113916	0.020023033020163
0	3699	177.227313113916	0.020023033020163
0	3701	177.327313113916	0.020023033020163
0	3703	177.427313113916	0.020023033020163
0	3704	177.436987132185	0.020023033020163
0	3706	177.527313113916	0.020384336947087
0	3708	177.556228877144	0.0205
0	3709	177.627313113916	0.020784336947088
0	3711	177.681228877144	0.021
0	3712	177.727313113916	0.021184336947088
0	3714	177.806228877144	0.0215
0	3715	177.827313113916	0.021584336947088
0	3717	177.927313113916	0.021984336947088
0	3718	177.931228877144	0.022
0	3720	178.027313113916	0.022384336947088
0	3722	178.056228877144	0.0225
0	3723	178.127313113916	0.022784336947088
0	3725	178.181228877144	0.023
0	3726	178.227313113916	0.023184336947088
0	3728	178.306228877144	0.0235
0	3729	178.327313113916	0.023584336947088
0	3731	178.427313113916	0.023984336947088
0	3732	178.431228877144	0.024
0	3734	178.527313113916	0.024384336947088
0	3736	178.556228877144	0.0245
0	3737	178.627313113916	0.024784336947088
0	3739	178.681228877144	0.025
0	3740	178.727313113916	0.025184336947088
0	3742	178.806228877144	0.0255
0	3743	178.827313113916	0.025584336947088
0	3745	178.927313113916	0.025984336947088
0	3746	178.931228877144	0.026
0	3748	179.027313113916	0.026384336947088
0	3750	179.056228877144	0.0265
0	3751	179.127313113916	0.026784336947088
0	3753	179.181228877144	0.027
0	3754	179.227313113916	0.027184336947088
0	3756	179.306228877144	0.0275
0	3757	179.327313113916	0.027584336947088
0	3759	179.427313113916	0.027984336947088
0	3760	179.431228877144	0.028
0	3762	179.527313113916	0.028384336947088
0	3764	179.556228877144	0.0285
0	3765	179.627313113916	0.028784336947088
0	3767	179.681228877144	0.029
0	3768	179.727313113916	0.029184336947088
0	3770	179.806228877144	0.0295
0	3771	179.827313113916	0.029584336947088
0	3773	179.927313113916	0.029984336947088
0	3774	179.931228877144	0.03
0	3776	180.027313113916	0.030384336947088
0	3778	180.056228877144	0.02745
0	3778	180.056228877144	0.02745
0	3779	180.068728877144	0.0275
0	3780	180.127313113916	0.027734336947088
0	3782	180.193728877144	0.028
0	3783	180.227313113916	0.028134336947088
0	3785	180.318728877144	0.0285
0	3786	180.327313113916	0.028534336947088
0	3788	180.427313113916	0.028934336947088
0	3789	180.443728877144	0.029
0	3791	180.527313113916	0.029334336947088
0	3793	180.568728877144	0.0295
0	3794	180.627313113916	0.029734336947088
0	3796	180.693728877144	0.03
0	3797	180.727313113916	0.030134336947088
0	3799	180.818728877144	0.0305
0	3800	180.827313113916	0.030534336947088
0	3802	180.927313113916	0.030934336947088
0	3803	180.943728877144	0.031
0	3805	181.027313113916	0.031334336947088
0	3807	181.068728877144	0.0315
0	3808	181.127313113916	0.031734336947088
0	3810	181.193728877144	0.032
0	3811	181.227313113916	0.032134336947088
0	3813	181.318728877144	0.0325
0	3814	181.327313113916	0.032534336947088
0	3816	181.427313113916	0.032934336947088
0	3817	181.443728877144	0.033
0	3819	181.527313113916	0.033334336947088
0	3821	181.568728877144	0.0335
0	3822	181.627313113916	0.033734336947088
0	3824	181.693728877144	0.034
0	3825	181.727313113916	0.034134336947088
0	3827	181.818728877144	0.0345
0	3828	181.827313113916	0.034534336947088
0	3830	181.927313113916	0.034934336947088
0	3831	181.943728877144	0.035
0	3833	182.027313113916	0.035334336947088
0	3835	182.068728877144	0.0355
0	3836	182.127313113916	0.035734336947088
0	3838	182.193728877144	0.036
0	3839	182.227313113916	0.036134336947088
0	3841	182.318728877144	0.0365
0	3842	182.327313113916	0.036534336947088
0	3844	182.427313113916	0.036934336947088
0	3845	182.443728877144	0.037
0	3847	182.527313113916	0.037334336947088
0	3849	182.568728877144	0.0375
0	3850	182.627313113916	0.037734336947088
0	3852	182.693728877144	0.038
0	3853	182.727313113916	0.038134336947088
0	3855	182.818728877144	0.0385
0	3856	182.827313113916	0.038534336947088
0	3858	182.927313113916	0.038934336947088
0	3859	182.943728877144	0.039
0	3861	183.027313113916	0.039334336947088
0	3863	183.068728877144	0.0395
0	3864	183.127313113916	0.039734336947088
0	3866	183.193728877144	0.04
0	3867	183.227313113916	0.040134336947088
0	3869	183.318728877144	0.0405
0	3870	183.327313113916	0.040534336947088
0	3872	183.427313113916	0.040934336947088
0	3873	183.443728877144	0.041
0	3875	183.527313113916	0.041334336947088
0	3877	183.568728877144	0.0415
0	3878	183.627313113916	0.041734336947088
0	3880	183.693728877144	0.0378
0	3880	183.693728877144	0.0378
0	3881	183.727313113916	0.037934336947088
0	3882	183.743728877144	0.038
0	3884	183.827313113916	0.038334336947088
0	3886	183.868728877144	0.0385
0	3887	183.927313113916	0.038734336947088
0	3889	183.993728877144	0.039
0	3890	184.027313113916	0.039134336947088
0	3892	184.118728877144	0.0395
0	3893	184.127313113916	0.039534336947088
0	3895	184.227313113916	0.039934336947088
0	3896	184.243728877144	0.04
0	3898	184.327313113916	0.040334336947088
0	3900	184.368728877144	0.0405
0	3901	184.427313113916	0.040734336947088
0	3903	184.493728877144	0.041
0	3904	184.527313113916	0.041134336947088
0	3906	184.618728877144	0.0415
0	3907	184.627313113916	0.041534336947088
0	3909	184.727313113916	0.041934336947088
0	3910	184.743728877144	0.042
0	3912	184.827313113916	0.042334336947088
0	3914	184.868728877144	0.03825
0	3914	184.868728877144	0.03825
0	3915	184.927313113916	0.038484336947088
0	3916	184.931228877144	0.0385
0	3918	185.027313113916	0.038884336947088
0	3920	185.056228877144	0.039
0	3921	185.127313113916	0.039284336947088
0	3923	185.181228877144	0.0395
0	3924	185.227313113916	0.039684336947088
0	3926	185.306228877144	0.04
0	3927	185.327313113916	0.040084336947088
0	3929	185.427313113916	0.040484336947088
0	3930	185.431228877144	0.0405
0	3932	185.527313113916	0.040884336947088
0	3934	185.556228877144	0.041
0	3935	185.627313113916	0.041284336947088
0	3937	185.681228877144	0.0415
0	3938	185.727313113916	0.041684336947088
0	3940	185.806228877144	0.042
0	3941	185.827313113916	0.042084336947088
0	3943	185.927313113916	0.042484336947088
0	3944	185.931228877144	0.0425
0	3946	186.027313113916	0.042884336947088
0	3948	186.056228877144	0.0387
0	3948	186.056228877144	0.0387
0	3949	186.127313113916	0.038984336947088
0	3950	186.131228877144	0.039
0	3952	186.227313113916	0.039384336947088
0	3954	186.256228877144	0.0395
0	3955	186.327313113916	0.039784336947088
0	3957	186.381228877144	0.04
0	3958	186.427313113916	0.040184336947088
0	3960	186.506228877144	0.0405
0	3961	186.527313113916	0.040584336947088
0	3963	186.627313113916	0.040984336947088
0	3964	186.631228877144	0.041
0	3966	186.727313113916	0.041384336947088
0	3968	186.756228877144	0.0415
0	3969	186.827313113916	0.041784336947088
0	3971	186.881228877144	0.042
0	3972	186.927313113916	0.042184336947088
0	3974	187.006228877144	0.0425
0	3975	187.027313113916	0.042584336947088
0	3977	187.127313113916	0.042984336947088
0	3978	187.131228877144	0.043
0	3980	187.227313113916	0.043384336947088
0	3982	187.256228877144	0.03915
0	3982	187.256228877144	0.03915
0	3983	187.327313113916	0.039434336947088
0	3984	187.343728877144	0.0395
0	3986	187.427313113916	0.039834336947088
0	3988	187.468728877144	0.04
0	3989	187.527313113916	0.040234336947088
0	3991	187.593728877144	0.0405
0	3992	187.627313113916	0.040634336947088
0	3994	187.718728877144	0.041
0	3995	187.727313113916	0.041034336947088
0	3997	187.827313113916	0.041434336947088
0	3998	187.843728877144	0.0415
0	4000	187.927313113916	0.041834336947088
0	4002	187.968728877144	0.042
0	4003	188.027313113916	0.042234336947088
0	4005	188.093728877144	0.0425
0	4006	188.127313113916	0.042634336947088
0	4008	188.218728877144	0.043
0	4009	188.227313113916	0.043034336947088
0	4011	188.327313113916	0.043434336947088
0	4012	188.343728877144	0.0435
0	4014	188.427313113916	0.043834336947088
0	4016	188.468728877144	0.0396
0	4016	188.468728877144	0.0396
0	4017	188.527313113916	0.039834336947088
0	4019	188.568728877144	0.04
0	4020	188.627313113916	0.040234336947088
0	4022	188.693728877144	0.0405
0	4023	188.727313113916	0.040634336947088
0	4025	188.818728877144	0.041
0	4026	188.827313113916	0.041034336947088
0	4028	188.927313113916	0.041434336947088
0	4029	188.943728877144	0.0415
0	4031	189.027313113916	0.041834336947088
0	4033	189.068728877144	0.042
0	4034	189.127313113916	0.042234336947088
0	4036	189.193728877144	0.0425
0	4037	189.227313113916	0.042634336947088
0	4039	189.318728877144	0.043
0	4040	189.327313113916	0.043034336947088
0	4042	189.427313113916	0.043434336947088
0	4043	189.443728877144	0.0435
0	4045	189.527313113916	0.043834336947088
0	4047	189.568728877144	0.044
0	4048	189.627313113916	0.044234336947088
0	4050	189.693728877144	0.04005
0	4050	189.693728877144	0.04005
0	4051	189.727313113916	0.040184336947088
0	4054	189.806228877144	0.0405
0	4055	189.827313113916	0.040584336947088
0	4057	189.927313113916	0.040984336947088
0	4058	189.931228877144	0.041
0	4060	190.027313113916	0.041384336947088
0	4061	190.056228877144	0.0415
0	4063	190.127313113916	0.041784336947088
0	4064	190.181228877144	0.042
0	4066	190.227313113916	0.042184336947088
0	4068	190.306228877144	0.0425
0	4069	190.327313113916	0.042584336947088
0	4071	190.427313113916	0.042984336947088
0	4072	190.431228877144	0.043
0	4074	190.527313113916	0.043384336947088
0	4075	190.556228877144	0.0435
0	4077	190.627313113916	0.043784336947088
0	4078	190.681228877144	0.044
0	4080	190.727313113916	0.044184336947088
0	4082	190.806228877144	0.0445
0	4083	190.827313113916	0.044584336947088
0	4085	190.927313113916	0.044984336947088
0	4086	190.931228877144	0.045
0	4088	191.027313113916	0.045384336947088
0	4089	191.056228877144	0.0455
0	4091	191.127313113916	0.045784336947088
0	4092	191.181228877144	0.046
0	4094	191.227313113916	0.046184336947088
0	4096	191.306228877144	0.0465
0	4097	191.327313113916	0.046584336947088
0	4099	191.427313113916	0.046984336947088
0	4100	191.431228877144	0.047
0	4101	191.49789361637	0.047266658956904
0	4103	191.527313113916	0.047266658956904
0	4105	191.627313113916	0.047266658956904
0	4107	191.727313113916	0.047266658956904
0	4109	191.827313113916	0.047266658956904
0	4111	191.927313113916	0.047266658956904
0	4113	192.027313113916	0.047266658956904
0	4115	192.127313113916	0.047266658956904
0	4117	192.227313113916	0.047266658956904
0	4119	192.327313113916	0.047266658956904
0	4121	192.427313113916	0.047266658956904
0	4123	192.527313113916	0.047266658956904
0	4125	192.627313113916	0.047266658956904
0	4127	192.727313113916	0.047266658956904
0	4129	192.827313113916	0.047266658956904
0	4131	192.927313113916	0.047266658956904
0	4133	193.027313113916	0.047266658956904
0	4135	193.127313113916	0.047266658956904
0	4137	193.227313113916	0.047266658956904
0	4139	193.327313113916	0.047266658956904
0	4141	193.427313113916	0.047266658956904
0	4143	193.527313113916	0.047266658956904
0	4145	193.627313113916	0.047266658956904
0	4147	193.727313113916	0.047266658956904
0	4149	193.827313113916	0.047266658956904
0	4151	193.927313113916	0.047266658956904
0	4153	194.027313113916	0.047266658956904
0	4155	194.127313113916	0.047266658956904
0	4157	194.227313113916	0.047266658956904
0	4159	194.327313113916	0.047266658956904
0	4161	194.427313113916	0.047266658956904
0	4163	194.527313113916	0.047266658956904
0	4165	194.627313113916	0.047266658956904
0	4167	194.727313113916	0.047266658956904
0	4169	194.827313113916	0.047266658956904
0	4171	194.927313113916	0.047266658956904
0	4173	195.027313113916	0.047266658956904
0	4175	195.127313113916	0.047266658956904
0	4177	195.227313113916	0.047266658956904
0	4179	195.327313113916	0.047266658956904
0	4181	195.427313113916	0.047266658956904
0	4183	195.527313113916	0.047266658956904
0	4185	195.627313113916	0.047266658956904
0	4187	195.727313113916	0.047266658956904
0	4189	195.827313113916	0.047266658956904
0	4191	195.927313113916	0.047266658956904
0	4193	196.027313113916	0.047266658956904
0	4195	196.127313113916	0.047266658956904
0	4197	196.227313113916	0.047266658956904
0	4199	196.327313113916	0.047266658956904
0	4201	196.427313113916	0.047266658956904
0	4203	196.527313113916	0.047266658956904
0	4205	196.627313113916	0.047266658956904
0	4207	196.727313113916	0.047266658956904
0	4209	196.827313113916	0.047266658956904
0	4211	196.927313113916	0.047266658956904
0	4213	197.027313113916	0.047266658956904
0	4215	197.127313113916	0.047266658956904
0	4217	197.227313113916	0.047266658956904
0	4219	197.327313113916	0.047266658956904
0	4221	197.427313113916	0.047266658956904
0	4223	197.527313113916	0.047266658956904
0	4225	197.627313113916	0.047266658956904
0	4227	197.727313113916	0.047266658956904
0	4229	197.827313113916	0.047266658956904
0	4231	197.927313113916	0.047266658956904
0	4233	198.027313113916	0.047266658956904
0	4235	198.127313113916	0.047266658956904
0	4237	198.227313113916	0.047266658956904
0	4239	198.327313113916	0.047266658956904
0	4241	198.427313113916	0.047266658956904
0	4243	198.527313113916	0.047266658956904
0	4245	198.627313113916	0.047266658956904
0	4247	198.727313113916	0.047266658956904
0	4249	198.827313113916	0.047266658956904
0	4251	198.927313113916	0.047266658956904
0	4253	199.027313113916	0.047266658956904
0	4255	199.127313113916	0.047266658956904
0	4257	199.227313113916	0.047266658956904
0	4259	199.327313113916	0.047266658956904
0	4261	199.427313113916	0.047266658956904
0	4263	199.527313113916	0.047266658956904
0	4265	199.627313113916	0.047266658956904
0	4267	199.727313113916	0.047266658956904
0	4269	199.827313113916	0.047266658956904
0	4271	199.927313113916	0.047266658956904
0	4273	200.027313113916	0.047266658956904
0	4275	200.127313113916	0.047266658956904
0	4277	200.227313113916	0.047266658956904
0	4279	200.327313113916	0.047266658956904
0	4281	200.427313113916	0.047266658956904
0	4283	200.527313113916	0.047266658956904
0	4285	200.627313113916	0.047266658956904
0	4287	200.727313113916	0.047266658956904
0	4289	200.827313113916	0.047266658956904
0	4291	200.927313113916	0.047266658956904
0	4293	201.027313113916	0.047266658956904
0	4295	201.127313113916	0.047266658956904
0	4297	201.227313113916	0.047266658956904
0	4299	201.327313113916	0.047266658956904
0	4301	201.427313113916	0.047266658956904
0	4303	201.527313113916	0.047266658956904
0	4305	201.627313113916	0.047266658956904
0	4307	201.727313113916	0.047266658956904
0	4309	201.827313113916	0.047266658956904
0	4311	201.927313113916	0.047266658956904
0	4313	202.027313113916	0.047266658956904
0	4315	202.127313113916	0.047266658956904
0	4317	202.227313113916	0.047266658956904
0	4319	202.327313113916	0.047266658956904
0	4321	202.427313113916	0.047266658956904
0	4323	202.527313113916	0.047266658956904
0	4325	202.627313113916	0.047266658956904
0	4327	202.727313113916	0.047266658956904
0	4329	202.827313113916	0.047266658956904
0	4331	202.927313113916	0.047266658956904
0	4333	203.027313113916	0.047266658956904
0	4335	203.127313113916	0.047266658956904
0	4337	203.227313113916	0.047266658956904
0	4339	203.327313113916	0.047266658956904
0	4341	203.427313113916	0.047266658956904
0	4343	203.527313113916	0.047266658956904
0	4345	203.627313113916	0.047266658956904
0	4347	203.727313113916	0.047266658956904
0	4349	203.827313113916	0.047266658956904
0	4351	203.927313113916	0.047266658956904
0	4353	204.027313113916	0.047266658956904
0	4355	204.127313113916	0.047266658956904
0	4357	204.227313113916	0.047266658956904
0	4359	204.327313113916	0.047266658956904
0	4361	204.427313113916	0.047266658956904
0	4363	204.527313113916	0.047266658956904
0	4365	204.627313113916	0.047266658956904
0	4367	204.727313113916	0.047266658956904
0	4369	204.827313113916	0.047266658956904
0	4371	204.927313113916	0.047266658956904
0	4373	205.027313113916	0.047266658956904
0	4375	205.127313113916	0.047266658956904
0	4377	205.227313113916	0.047266658956904
0	4379	205.327313113916	0.047266658956904
0	4381	205.427313113916	0.047266658956904
0	4383	205.527313113916	0.047266658956904
0	4385	205.627313113916	0.047266658956904
0	4387	205.727313113916	0.047266658956904
0	4389	205.827313113916	0.047266658956904
0	4391	205.927313113916	0.047266658956904
0	4393	206.027313113916	0.047266658956904
0	4395	206.127313113916	0.047266658956904
0	4397	206.227313113916	0.047266658956904
0	4399	206.327313113916	0.047266658956904
0	4401	206.427313113916	0.047266658956904
0	4403	206.527313113916	0.047266658956904
0	4405	206.627313113916	0.047266658956904
0	4407	206.727313113916	0.047266658956904
0	4409	206.827313113916	0.047266658956904
0	4411	206.927313113916	0.047266658956904
0	4413	207.027313113916	0.047266658956904
0	4415	207.127313113916	0.047266658956904
0	4417	207.227313113916	0.047266658956904
0	4419	207.327313113916	0.047266658956904
0	4421	207.427313113916	0.047266658956904
0	4423	207.527313113916	0.047266658956904
0	4425	207.627313113916	0.047266658956904
0	4427	207.727313113916	0.047266658956904
0	4429	207.827313113916	0.047266658956904
0	4431	207.927313113916	0.047266658956904
0	4433	208.027313113916	0.047266658956904
0	4435	208.127313113916	0.047266658956904
0	4437	208.227313113916	0.047266658956904
0	4439	208.327313113916	0.047266658956904
0	4441	208.427313113916	0.047266658956904
0	4443	208.527313113916	0.047266658956904
0	4445	208.627313113916	0.047266658956904
0	4447	208.727313113916	0.047266658956904
0	4449	208.827313113916	0.047266658956904
0	4451	208.927313113916	0.047266658956904
0	4453	209.027313113916	0.047266658956904
0	4455	209.127313113916	0.047266658956904
0	4457	209.227313113916	0.047266658956904
0	4459	209.327313113916	0.047266658956904
0	4461	209.427313113916	0.047266658956904
0	4463	209.527313113916	0.047266658956904
0	4465	209.627313113916	0.047266658956904
0	4467	209.727313113916	0.047266658956904
0	4469	209.827313113916	0.047266658956904
0	4471	209.927313113916	0.047266658956904
0	4473	210.027313113916	0.047266658956904
0	4475	210.127313113916	0.047266658956904
0	4477	210.227313113916	0.047266658956904
0	4479	210.327313113916	0.047266658956904
0	4481	210.427313113916	0.047266658956904
0	4483	210.527313113916	0.047266658956904
0	4485	210.627313113916	0.047266658956904
0	4487	210.727313113916	0.047266658956904
0	4489	210.827313113916	0.047266658956904
0	4491	210.927313113916	0.047266658956904
0	4493	211.027313113916	0.047266658956904
0	4495	211.127313113916	0.047266658956904
0	4497	211.227313113916	0.047266658956904
0	4499	211.327313113916	0.047266658956904
0	4501	211.427313113916	0.047266658956904
0	4503	211.527313113916	0.047266658956904
0	4505	211.627313113916	0.047266658956904
0	4507	211.727313113916	0.047266658956904
0	4509	211.827313113916	0.047266658956904
0	4511	211.927313113916	0.047266658956904
0	4513	212.027313113916	0.047266658956904
0	4515	212.127313113916	0.047266658956904
0	4517	212.227313113916	0.047266658956904
0	4519	212.327313113916	0.047266658956904
0	4521	212.427313113916	0.047266658956904
0	4523	212.527313113916	0.047266658956904
0	4525	212.627313113916	0.047266658956904
0	4527	212.727313113916	0.047266658956904
0	4529	212.827313113916	0.047266658956904
0	4531	212.927313113916	0.047266658956904
0	4533	213.027313113916	0.047266658956904
0	4535	213.127313113916	0.047266658956904
0	4537	213.227313113916	0.047266658956904
0	4539	213.327313113916	0.047266658956904
0	4541	213.427313113916	0.047266658956904
0	4543	213.527313113916	0.047266658956904
0	4545	213.627313113916	0.047266658956904
0	4547	213.727313113916	0.047266658956904
0	4549	213.827313113916	0.047266658956904
0	4551	213.927313113916	0.047266658956904
0	4553	214.027313113916	0.047266658956904
0	4555	214.127313113916	0.047266658956904
0	4557	214.227313113916	0.047266658956904
0	4559	214.327313113916	0.047266658956904
0	4561	214.427313113916	0.047266658956904
0	4563	214.527313113916	0.047266658956904
0	4565	214.627313113916	0.047266658956904
0	4567	214.727313113916	0.047266658956904
0	4569	214.827313113916	0.047266658956904
0	4571	214.927313113916	0.047266658956904
0	4573	215.027313113916	0.047266658956904
0	4575	215.127313113916	0.047266658956904
0	4577	215.227313113916	0.047266658956904
0	4579	215.327313113916	0.047266658956904
0	4581	215.427313113916	0.047266658956904
0	4583	215.527313113916	0.047266658956904
0	4585	215.627313113916	0.047266658956904
0	4587	215.727313113916	0.047266658956904
0	4589	215.827313113916	0.047266658956904
0	4591	215.927313113916	0.047266658956904
0	4593	216.027313113916	0.047266658956904
0	4595	216.127313113916	0.047266658956904
0	4597	216.227313113916	0.047266658956904
0	4599	216.327313113916	0.047266658956904
0	4601	216.427313113916	0.047266658956904
0	4603	216.527313113916	0.047266658956904
0	4605	216.627313113916	0.047266658956904
0	4607	216.727313113916	0.047266658956904
0	4609	216.827313113916	0.047266658956904
0	4611	216.927313113916	0.047266658956904
0	4613	217.027313113916	0.047266658956904
0	4615	217.127313113916	0.047266658956904
0	4617	217.227313113916	0.047266658956904
0	4619	217.327313113916	0.047266658956904
0	4621	217.427313113916	0.047266658956904
0	4623	217.527313113916	0.047266658956904
0	4625	217.627313113916	0.047266658956904
0	4627	217.727313113916	0.047266658956904
0	4629	217.827313113916	0.047266658956904
0	4631	217.927313113916	0.047266658956904
0	4633	218.027313113916	0.047266658956904
0	4635	218.127313113916	0.047266658956904
0	4637	218.227313113916	0.047266658956904
0	4639	218.327313113916	0.047266658956904
0	4641	218.427313113916	0.047266658956904
0	4643	218.527313113916	0.047266658956904
0	4645	218.627313113916	0.047266658956904
0	4647	218.727313113916	0.047266658956904
0	4649	218.827313113916	0.047266658956904
0	4651	218.927313113916	0.047266658956904
0	4653	219.027313113916	0.047266658956904
0	4655	219.127313113916	0.047266658956904
0	4657	219.227313113916	0.047266658956904
0	4659	219.327313113916	0.047266658956904
0	4661	219.427313113916	0.047266658956904
0	4662	219.479967203218	0.042539993061214
0	4662	219.479967203218	0.042539993061214
0	4664	219.579967203218	0.042539993061214
0	4666	219.679967203218	0.042539993061214
0	4668	219.779967203218	0.042539993061214
0	4670	219.879967203218	0.042539993061214
0	4672	219.979967203218	0.042539993061214
0	4674	220.079967203218	0.042539993061214
0	4676	220.179967203218	0.042539993061214
0	4678	220.279967203218	0.042539993061214
0	4680	220.379967203218	0.042539993061214
0	4682	220.479967203218	0.042539993061214
0	4684	220.579967203218	0.042539993061214
0	4686	220.679967203218	0.042539993061214
0	4688	220.779967203218	0.042539993061214
0	4690	220.879967203218	0.042539993061214
0	4692	220.979967203218	0.042539993061214
0	4695	221.079967203218	0.042539993061214
0	4697	221.179967203218	0.042539993061214
0	4699	221.279967203218	0.042539993061214
0	4701	221.379967203218	0.042539993061214
0	4703	221.479967203218	0.042539993061214
[...]
2	67480	3025.85717027361	0.032805
2	67481	3025.900033940889	0.032805
2	67482	3025.95717027361	0.032805
2	67485	3025.996784935889	0.032805
2	67487	3026.05717027361	0.032805
2	67488	3026.119863109889	0.0295245
2	67488	3026.119863109889	0.0295245
2	67489	3026.15717027361	0.0295245
2	67491	3026.208481335889	0.0295245
2	67492	3026.25717027361	0.0295245
2	67493	3026.273128823889	0.0295245
2	67494	3026.343659432889	0.0295245
2	67495	3026.35717027361	0.0295245
2	67496	3026.420141236889	0.0295245
2	67498	3026.45717027361	0.0295245
2	67499	3026.547150258889	0.0295245
2	67501	3026.55717027361	0.0295245
2	67502	3026.611696775889	0.0295245
2	67503	3026.65717027361	0.0295245
2	67504	3026.669285442889	0.0295245
2	67505	3026.727869703889	0.0295245
2	67506	3026.75717027361	0.02657205
2	67506	3026.75717027361	0.02657205
2	67507	3026.804458625889	0.02657205
2	67509	3026.85717027361	0.02657205
2	67510	3026.882812434889	0.02657205
2	67511	3026.948054804889	0.02657205
2	67512	3026.95717027361	0.02657205
2	67513	3027.039291242889	0.02657205
2	67515	3027.05717027361	0.02657205
2	67516	3027.108377047889	0.02657205
2	67517	3027.15717027361	0.02657205
2	67519	3027.197178634889	0.02657205
2	67520	3027.25717027361	0.02657205
2	67521	3027.294343768889	0.02657205
2	67523	3027.35717027361	0.02657205
2	67524	3027.372450873889	0.023914845
2	67524	3027.372450873889	0.023914845
2	67525	3027.444267248889	0.023914845
2	67526	3027.45717027361	0.023914845
2	67527	3027.526399347889	0.023914845
2	67529	3027.55717027361	0.023914845
2	67530	3027.593041704889	0.023914845
2	67531	3027.65717027361	0.023914845
2	67533	3027.703776454889	0.023914845
2	67534	3027.75717027361	0.023914845
2	67535	3027.776571898889	0.023914845
2	67537	3027.85717027361	0.023914845
2	67537	3027.863064082889	0.023914845
2	67539	3027.953775457889	0.023914845
2	67540	3027.95717027361	0.023914845
2	67541	3028.048016725889	0.023914845
2	67543	3028.05717027361	0.023914845
2	67546	3028.15717027361	0.023914845
2	67548	3028.238875003889	0.023914845
2	67549	3028.25717027361	0.023914845
2	67550	3028.314015999889	0.023914845
2	67552	3028.35717027361	0.023914845
2	67553	3028.392115346889	0.023914845
2	67554	3028.45717027361	0.023914845
2	67555	3028.475292265889	0.023914845
2	67556	3028.547238271889	0.023914845
2	67557	3028.55717027361	0.023914845
2	67559	3028.646087363889	0.023914845
2	67560	3028.65717027361	0.023914845
2	67562	3028.732330712889	0.0215233605
2	67562	3028.732330712889	0.0215233605
2	67563	3028.75717027361	0.0215233605
2	67564	3028.809366817889	0.0215233605
2	67566	3028.85717027361	0.0215233605
2	67567	3028.887728074889	0.0215233605
2	67568	3028.95717027361	0.0215233605
2	67569	3028.975224448889	0.0215233605
2	67571	3029.05717027361	0.0215233605
2	67572	3029.095174953889	0.0215233605
2	67574	3029.15717027361	0.0215233605
2	67575	3029.173700485889	0.0215233605
2	67577	3029.25717027361	0.0215233605
2	67577	3029.261843958889	0.0215233605
2	67578	3029.353782616889	0.0215233605
2	67580	3029.35717027361	0.0215233605
2	67581	3029.434675678889	0.0215233605
2	67582	3029.45717027361	0.0215233605
2	67584	3029.515688125889	0.0215233605
2	67585	3029.55717027361	0.0215233605
2	67586	3029.589885805889	0.0215233605
2	67588	3029.65717027361	0.0215233605
2	67589	3029.682186136889	0.0215233605
2	67591	3029.75717027361	0.0215233605
2	67592	3029.769697417889	0.0215233605
2	67592	3029.843254937889	0.0215233605
2	67594	3029.85717027361	0.0215233605
2	67595	3029.889245979889	0.0215233605
2	67596	3029.95717027361	0.0215233605
2	67597	3029.976758723889	0.0215233605
2	67599	3030.05717027361	0.0215233605
2	67600	3030.069795061889	0.0215233605
2	67602	3030.15717027361	0.0215233605
2	67602	3030.163163639889	0.0215233605
2	67604	3030.252870520889	0.0215233605
2	67605	3030.25717027361	0.0215233605
2	67606	3030.333599500889	0.0215233605
2	67608	3030.35717027361	0.0215233605
2	67609	3030.397669474889	0.0215233605
2	67610	3030.45717027361	0.0215233605
2	67610	3030.461572284889	0.0215233605
2	67612	3030.509730620889	0.0215233605
2	67613	3030.55717027361	0.0215233605
2	67614	3030.580662095889	0.0215233605
2	67616	3030.65717027361	0.0215233605
2	67617	3030.671504160889	0.0215233605
2	67619	3030.75717027361	0.0215233605
2	67619	3030.760615826889	0.0215233605
2	67620	3030.853961327889	0.0215233605
2	67622	3030.85717027361	0.0215233605
2	67623	3030.933589653889	0.0215233605
2	67624	3030.95717027361	0.0215233605
2	67626	3031.005010427889	0.0215233605
2	67627	3031.05717027361	0.0215233605
2	67628	3031.076239932889	0.0215233605
2	67630	3031.15717027361	0.0215233605
2	67630	3031.167103361889	0.0215233605
2	67632	3031.253654636889	0.0215233605
2	67633	3031.25717027361	0.0215233605
2	67634	3031.331732248889	0.01937102445
2	67634	3031.331732248889	0.01937102445
2	67636	3031.35717027361	0.01937102445
2	67637	3031.402130102889	0.01937102445
2	67638	3031.45717027361	0.01937102445
2	67640	3031.482097240889	0.01937102445
2	67641	3031.55717027361	0.01937102445
2	67641	3031.565580323889	0.01937102445
2	67644	3031.65717027361	0.01937102445
2	67645	3031.685527438889	0.01937102445
2	67647	3031.75717027361	0.01937102445
2	67648	3031.777280470889	0.01937102445
2	67650	3031.85717027361	0.01937102445
2	67650	3031.864266282889	0.01937102445
2	67652	3031.95717027361	0.01937102445
2	67652	3031.958779585889	0.01937102445
2	67655	3032.042499865889	0.01937102445
2	67656	3032.05717027361	0.01937102445
2	67658	3032.080256029819	0.01937102445
2	67659	3032.112499917319	0.0195
2	67659	3032.131568822889	0.01957627562228
2	67661	3032.15717027361	0.019678681425164
2	67662	3032.229369815889	0.01996747959428
2	67663	3032.237499917319	0.02
2	67664	3032.25717027361	0.020078681425164
2	67667	3032.35717027361	0.020478681425164
2	67667	3032.357680217889	0.02048072120228
2	67668	3032.362499917319	0.0205
2	67670	3032.435772803889	0.02079309154628
2	67671	3032.45717027361	0.020878681425164
2	67673	3032.487499917319	0.021
2	67673	3032.512948159889	0.02110179297028
2	67675	3032.55717027361	0.021278681425164
2	67676	3032.596926279889	0.02143770545028
2	67677	3032.612499917319	0.0215
2	67679	3032.65717027361	0.021678681425164
2	67680	3032.683513873889	0.02178405582628
2	67681	3032.737499917319	0.022
2	67682	3032.75717027361	0.022078681425164
2	67684	3032.776973250889	0.02215789333428
2	67685	3032.85717027361	0.022478681425164
2	67686	3032.862499917319	0.0225
2	67687	3032.871635485889	0.02253654227428
2	67689	3032.95717027361	0.022878681425164
2	67689	3032.965733220889	0.02291293321428
2	67691	3032.987499917319	0.023
2	67692	3033.055968998889	0.02327387632628
2	67693	3033.05717027361	0.023278681425164
2	67695	3033.112499917319	0.0235
2	67696	3033.147712643889	0.021276765815652
2	67696	3033.147712643889	0.021276765815652
2	67697	3033.15717027361	0.021314596334536
2	67698	3033.233071531889	0.021618201367652
2	67699	3033.237499917319	0.024
2	67700	3033.25717027361	0.024078681425164
2	67702	3033.304961320889	0.02426984561428
2	67703	3033.35717027361	0.024478681425164
2	67704	3033.362499917319	0.0245
2	67705	3033.391853022889	0.02461741242228
2	67707	3033.45717027361	0.024878681425164
2	67708	3033.477077501889	0.02495831033828
2	67709	3033.487499917319	0.025
2	67710	3033.556364532889	0.02527545846228
2	67711	3033.55717027361	0.025278681425164
2	67713	3033.612499917319	0.0255
2	67714	3033.648131423889	0.02564252602628
2	67715	3033.65717027361	0.025678681425164
2	67716	3033.722331432889	0.023345393456052
2	67716	3033.722331432889	0.023345393456052
2	67717	3033.737499917319	0.026
2	67718	3033.75717027361	0.026078681425164
2	67720	3033.785739284889	0.02619295747028
2	67721	3033.85717027361	0.026478681425164
2	67722	3033.862499917319	0.0265
2	67723	3033.884558304889	0.02658823355028
2	67725	3033.95717027361	0.026878681425164
2	67726	3033.971245453889	0.02693498214628
2	67727	3033.987499917319	0.027
2	67728	3034.055128022889	0.02727051242228
2	67729	3034.05717027361	0.027278681425164
2	67731	3034.112499917319	0.0275
2	67731	3034.143024989889	0.02762210029028
2	67733	3034.15717027361	0.027678681425164
2	67734	3034.224011369889	0.02794604581028
2	67735	3034.237499917319	0.028
2	67736	3034.25717027361	0.028078681425164
2	67738	3034.304419247889	0.02826767732228
2	67740	3034.35717027361	0.028478681425164
2	67741	3034.362499917319	0.0285
2	67742	3034.402687718889	0.02866075120628
2	67743	3034.45717027361	0.028878681425164
2	67746	3034.487499917319	0.029
2	67747	3034.55717027361	0.029278681425164
2	67747	3034.562367985889	0.02929947227428
2	67750	3034.612499917319	0.0295
2	67750	3034.638284995889	0.02960314031428
2	67751	3034.65717027361	0.029678681425164
2	67752	3034.705416304889	0.02987166555028
2	67754	3034.737499917319	0.03
2	67755	3034.75717027361	0.030078681425164
2	67756	3034.820750839889	0.03033300369028
2	67758	3034.85717027361	0.030478681425164
2	67759	3034.862499917319	0.0305
2	67760	3034.941881729889	0.03081752725028
2	67761	3034.95717027361	0.030878681425164
2	67764	3034.987499917319	0.031
2	67764	3035.036413509889	0.03119565437028
2	67765	3035.05717027361	0.031278681425164
2	67768	3035.112499917319	0.0315
2	67768	3035.115132808889	0.03151053156628
2	67769	3035.15717027361	0.031678681425164
2	67770	3035.196883611889	0.03183753477828
2	67772	3035.237499917319	0.032
2	67773	3035.25717027361	0.032078681425164
2	67774	3035.280719924889	0.03217288003028
2	67776	3035.35717027361	0.032478681425164
2	67777	3035.362499917319	0.0325
2	67778	3035.369916286889	0.03252966547828
2	67779	3035.45717027361	0.032878681425164
2	67779	3035.465265699889	0.03291106313028
3	0	0	0.004
3	951	46.974101355068	0
3	1099	54.287866384849	0.004
3	2333	114.764151238812	0
3	2766	136.298161651502	0.004
3	2921	141.666273169861	0
3	2940	142.628664042085	0.004
3	4694	221.028881495901	0
3	5333	252.111591542114	0.004
3	5530	259.11543959066	0
3	5722	268.678919467362	0.004
3	5746	269.46521704987	0
3	5874	275.745432539096	0.004
3	6140	285.035800033084	0
3	6517	302.120490384358	0.004
3	6557	303.426615078772	0
3	7279	338.869617664905	0.004
3	7588	349.763826147316	0
3	7598	350.201198617223	0.004
3	8122	373.771054909062	0
3	8603	397.788467652851	0.004
3	9501	436.596727526867	0
3	9975	460.096181539949	0.004
3	10091	463.563638836736	0
3	10323	471.741691026441	0.004
3	10570	482.652852986208	0
3	10913	499.774485593302	0.004
3	12261	559.199024550257	0
3	12367	563.844905644209	0.004
3	12458	567.03267598232	0
3	13346	609.789641284662	0.004
3	14213	645.988808616962	0
3	14803	672.968914163445	0.004
3	14936	677.598815307991	0
3	15467	704.082914272091	0.004
3	16070	725.502303025513	0
3	16112	726.985426538606	0.004
3	16983	767.982790100899	0
3	17351	784.823507542671	0.004
3	17729	802.719584351871	0
3	18196	819.916144724371	0.004
3	20131	910.459742088649	0
3	22667	1027.581831609916	0.004
3	22815	1032.749950127204	0
3	24288	1102.834706415833	0.004
3	24365	1105.541711793347	0
3	24495	1111.978240740953	0.004
3	24689	1118.444257490652	0
3	25011	1133.537086049948	0.004
3	25865	1166.671476189793	0
3	26596	1202.205295023117	0.004
3	27709	1246.768610469807	0
3	28305	1276.494333987844	0.004
3	28893	1296.814327705226	0
3	29890	1344.154310198925	0.004
3	30518	1368.745709467942	0
3	31365	1411.015820796238	0.004
3	31384	1411.656830446075	0
3	31536	1419.184761312916	0.004
3	32596	1466.417239375533	0
3	33147	1485.809187775166	0.004
3	33270	1490.399333559166	0
3	33662	1509.962487301073	0.004
3	34164	1527.456075895006	0
3	34762	1553.900573761228	0.004
3	35733	1599.896648128316	0
3	36038	1615.04010799275	0.004
3	36047	1615.326081800423	0
3	36189	1622.156297827039	0.004
3	36394	1629.32898582389	0
3	36641	1641.30995013542	0.004
3	36836	1650.115472127712	0
3	36981	1657.358108900285	0.004
3	36984	1657.378296812797	0
3	37039	1660.133964992579	0.004
3	37436	1679.84344778358	0
3	38174	1712.449664454276	0.004
3	38369	1717.772414568358	0
3	38670	1732.661474927637	0.004
3	39603	1772.092737513972	0
3	39733	1778.53390970827	0.004
3	39774	1780.172732140472	0
3	40359	1809.358426512652	0.004
3	40558	1816.381680474406	0
3	42363	1898.185553130999	0.004
3	42856	1916.795927848466	0
3	43846	1961.784969986629	0.004
3	43967	1966.086430923384	0
3	45277	2031.320249019134	0.004
3	45476	2038.249708837309	0
3	46282	2075.41881742563	0.004
3	46826	2096.563290726465	0
3	46832	2096.751427381184	0.004
3	47433	2126.182640398519	0
3	49075	2202.68376659137	0.004
3	49459	2216.175714558219	0
3	49529	2219.619334080881	0.004
3	50802	2274.256006754116	0
3	51686	2318.382402676338	0.004
3	51716	2319.415690632834	0
3	52243	2345.744078038023	0.004
3	52477	2354.320017412777	0
3	52890	2374.956562399713	0.004
3	53376	2393.294191645277	0
3	53717	2408.897322182729	0.004
3	55229	2474.16531481109	0
3	57200	2565.999840469096	0.004
3	60160	2695.439701398438	0
3	61053	2734.587828221287	0.004
3	61739	2766.65628072794	0
3	62996	2825.076007774922	0.004
3	63185	2831.667689057583	0
3	63329	2838.849100056964	0.004
3	63675	2850.961439133618	0
3	64340	2883.60367159596	0.004
3	64532	2890.403577801982	0
3	65726	2949.925312980455	0.004
3	65778	2951.729721356322	0
3	66762	2995.953199702505	0.004
3	67409	3022.338836478412	0
3	67658	3032.080256029819	0.004
4	0	0	0.004
4	461	23.08057828677	0
4	496	24.732878554105	0.004
4	1286	62.634601799731	0
4	1569	76.764892670907	0.004
4	1617	78.98749829331	0
4	2887	140.574864022709	0.004
4	2895	140.798460926057	0
4	3704	177.436987132185	0.004
4	4101	191.49789361637	0
4	4993	235.936637917777	0.004
4	5923	277.493206070194	0
4	6005	280.346222142797	0.004
4	6301	293.105692656391	0
4	6406	298.191228649772	0.004
4	7142	332.607391742315	0
4	7157	333.291422190142	0.004
4	7891	363.400029188777	0
4	7931	365.344706437911	0.004
4	8051	370.28907862828	0
4	8956	415.404025405647	0.004
4	9536	438.274640451073	0
4	10013	461.424516031556	0.004
4	10405	474.481970218601	0
4	11723	540.149005865066	0.004
4	12252	558.823449431651	0
4	12286	560.357241318316	0.004
4	12291	560.535183775429	0
4	12308	561.331353099256	0.004
4	12918	589.998244309614	0
4	13242	606.114476218728	0.004
4	14409	655.73400320102	0
4	14568	663.570689762748	0.004
4	15295	695.503258665969	0
4	15936	720.841901509857	0.004
4	16926	765.358850631877	0
4	16973	767.632148381355	0.004
4	17078	771.30912464685	0
4	17769	804.636943408473	0.004
4	18341	826.504444115677	0
4	18408	829.734950813747	0.004
4	18472	832.638732179519	0
4	19095	863.749673745104	0.004
4	19441	876.033272321496	0
4	20362	921.977334590448	0.004
4	20575	929.471087858669	0
4	21195	960.316557439884	0.004
4	22572	1022.873294740317	0
4	22877	1035.822914238416	0.004
4	23123	1044.960848521725	0
4	23175	1047.542582480803	0.004
4	23905	1083.75241539864	0
4	24660	1117.675331838298	0.004
4	24730	1119.839166980837	0
4	24991	1132.840464450557	0.004
4	25912	1168.958996857088	0
4	26535	1200.050899977651	0.004
4	26985	1214.273940432001	0
4	27220	1224.731686135099	0.004
4	27512	1236.969607974986	0
4	28600	1286.952094237294	0.004
4	29432	1321.307367952186	0
4	29997	1347.913316998718	0.004
4	30394	1362.606071250285	0
4	32320	1456.696504104031	0.004
4	33501	1501.951037463789	0
4	33910	1518.695189162921	0.004
4	36003	1613.346352740276	0
4	36139	1619.877687426752	0.004
4	36378	1628.775759523637	0
4	36589	1639.057477282742	0.004
4	36604	1639.52192592996	0
4	37885	1702.224167972263	0.004
4	39184	1751.276447687387	0
4	41010	1838.957463528058	0.004
4	41818	1871.270095572625	0
4	41980	1879.318219458822	0.004
4	43003	1924.061592056676	0
4	43197	1933.695567819115	0.004
4	43400	1940.854830392079	0
4	43442	1942.911523991191	0.004
4	43512	1945.65966776091	0
4	43596	1949.824596871432	0.004
4	43969	1966.134516517712	0
4	44555	1995.381794464522	0.004
4	44718	2003.490997350471	0
4	45975	2063.158450386285	0.004
4	46182	2070.46988292118	0
4	47404	2125.163970801292	0.004
4	47929	2146.391887892892	0
4	48770	2188.409327289018	0.004
4	49093	2203.235642235522	0
4	50252	2249.999013995149	0.004
4	50493	2258.837464843255	0
4	52983	2379.502688137041	0.004
4	53634	2404.785508487716	0
4	54483	2442.686881493103	0.004
4	55420	2483.696970235044	0
4	55608	2493.023791877806	0.004
4	55765	2498.519512124208	0
4	56918	2556.045221300008	0.004
4	57989	2598.014245272863	0
4	58217	2609.368023289143	0.004
4	58467	2619.76117065632	0
4	58722	2632.48281418652	0.004
4	58946	2640.393387934282	0
4	59784	2682.21561772522	0.004
4	60269	2700.139064869297	0
4	60447	2708.99197135091	0.004
4	61876	2773.497481702737	0
4	61927	2776.00244647509	0.004
4	62019	2779.546021750483	0
4	62657	2811.384362194714	0.004
4	63927	2863.478649313288	0
4	64058	2869.967847386651	0.004
4	65080	2917.770385443272	0
4	66188	2972.193599929243	0.004
4	66523	2984.043990646561	0
4	67483	3025.965708783526	0.004
5	0	0	0.004
5	951	46.974101355068	0
5	1099	54.287866384849	0.004
5	2333	114.764151238812	0
5	2766	136.298161651502	0.004
5	2921	141.666273169861	0
5	2940	142.628664042085	0.004
5	4694	221.028881495901	0
5	5333	252.111591542114	0.004
5	5530	259.11543959066	0
5	5722	268.678919467362	0.004
5	5746	269.46521704987	0
5	5874	275.745432539096	0.004
5	6140	285.035800033084	0
5	6517	302.120490384358	0.004
5	6557	303.426615078772	0
5	7279	338.869617664905	0.004
5	7588	349.763826147316	0
5	7598	350.201198617223	0.004
5	8122	373.771054909062	0
5	8603	397.788467652851	0.004
5	9501	436.596727526867	0
5	9975	460.096181539949	0.004
5	10091	463.563638836736	0
5	10323	471.741691026441	0.004
5	10570	482.652852986208	0
5	10913	499.774485593302	0.004
5	12261	559.199024550257	0
5	12367	563.844905644209	0.004
5	12458	567.03267598232	0
5	13346	609.789641284662	0.004
5	14213	645.988808616962	0
5	14803	672.968914163445	0.004
5	14936	677.598815307991	0
5	15467	704.082914272091	0.004
5	16070	725.502303025513	0
5	16112	726.985426538606	0.004
5	16983	767.982790100899	0
5	17351	784.823507542671	0.004
5	17729	802.719584351871	0
5	18196	819.916144724371	0.004
5	20131	910.459742088649	0
5	22667	1027.581831609916	0.004
5	22815	1032.749950127204	0
5	24288	1102.834706415833	0.004
5	24365	1105.541711793347	0
5	24495	1111.978240740953	0.004
5	24689	1118.444257490652	0
5	25011	1133.537086049948	0.004
5	25865	1166.671476189793	0
5	26596	1202.205295023117	0.004
5	27709	1246.768610469807	0
5	28305	1276.494333987844	0.004
5	28893	1296.814327705226	0
5	29890	1344.154310198925	0.004
5	30518	1368.745709467942	0
5	31365	1411.015820796238	0.004
5	31384	1411.656830446075	0
5	31536	1419.184761312916	0.004
5	32596	1466.417239375533	0
5	33147	1485.809187775166	0.004
5	33270	1490.399333559166	0
5	33662	1509.962487301073	0.004
5	34164	1527.456075895006	0
5	34762	1553.900573761228	0.004
5	35733	1599.896648128316	0
5	36038	1615.04010799275	0.004
5	36047	1615.326081800423	0
5	36189	1622.156297827039	0.004
5	36394	1629.32898582389	0
5	36641	1641.30995013542	0.004
5	36836	1650.115472127712	0
5	36981	1657.358108900285	0.004
5	36984	1657.378296812797	0
5	37039	1660.133964992579	0.004
5	37436	1679.84344778358	0
5	38174	1712.449664454276	0.004
5	38369	1717.772414568358	0
5	38670	1732.661474927637	0.004
5	39603	1772.092737513972	0
5	39733	1778.53390970827	0.004
5	39774	1780.172732140472	0
5	40359	1809.358426512652	0.004
5	40558	1816.381680474406	0
5	42363	1898.185553130999	0.004
5	42856	1916.795927848466	0
5	43846	1961.784969986629	0.004
5	43967	1966.086430923384	0
5	45277	2031.320249019134	0.004
5	45476	2038.249708837309	0
5	46282	2075.41881742563	0.004
5	46826	2096.563290726465	0
5	46832	2096.751427381184	0.004
5	47433	2126.182640398519	0
5	49075	2202.68376659137	0.004
5	49459	2216.175714558219	0
5	49529	2219.619334080881	0.004
5	50802	2274.256006754116	0
5	51686	2318.382402676338	0.004
5	51716	2319.415690632834	0
5	52243	2345.744078038023	0.004
5	52477	2354.320017412777	0
5	52890	2374.956562399713	0.004
5	53376	2393.294191645277	0
5	53717	2408.897322182729	0.004
5	55229	2474.16531481109	0
5	57200	2565.999840469096	0.004
5	60160	2695.439701398438	0
5	61053	2734.587828221287	0.004
5	61739	2766.65628072794	0
5	62996	2825.076007774922	0.004
5	63185	2831.667689057583	0
5	63329	2838.849100056964	0.004
5	63675	2850.961439133618	0
5	64340	2883.60367159596	0.004
5	64532	2890.403577801982	0
5	65726	2949.925312980455	0.004
5	65778	2951.729721356322	0
5	66762	2995.953199702505	0.004
5	67409	3022.338836478412	0
5	67658	3032.080256029819	0.004

