version 2
run Mysterio_ex2-0-20210901-12:29:37-7448
attr configname Mysterio_ex2
attr datetime 20210901-12:29:37
attr experiment Mysterio_ex2
attr inifile omnetpp.ini
attr iterationvars ""
attr iterationvarsf ""
attr measurement ""
attr network MysterioCommunication2
attr processid 7448
attr repetition 0
attr replication #0
attr resultdir results
attr runnumber 0
attr seedset 0
param *.host[*].mobility.numeroDrones 2
param *.numHosts 2
param *.host[*].osgModel "\"3d/drone.ive.100.scale.0,0,90.rot\""
param *.basestation.osgModel "\"3d/car.ive.50.scale.0,0,90.rot\""
param *.canvasVisualizer.energyStorageVisualizer.displayEnergyStorages true
param *.host[*].hasStatus true
param *.host[*].energyStorage.typename "\"SimpleEpEnergyStorage\""
param *.host[*].wlan[*].radio.energyConsumer.typename "\"StateBasedEpEnergyConsumer\""
param *.host[*].energyManagement.typename "\"SimpleEpEnergyManagement\""
param *.host[*].energyStorage.nominalCapacity 0.05J
param *.host[*].energyManagement.nodeShutdownCapacity "0.1 * energyStorage.nominalCapacity"
param *.host[*].energyManagement.nodeStartCapacity "0.5 * energyStorage.nominalCapacity"
param *.host[*].energyStorage.initialCapacity 0.05J
param *.host[*].energyGenerator.typename "\"AlternatingEpEnergyGenerator\""
param *.host[*].energyGenerator.powerGeneration 4mW
param *.host[*].energyGenerator.sleepInterval exponential(25s)
param *.host[*].energyGenerator.generationInterval exponential(25s)
param *.host[*].mobility.typename "\"UAVMobility\""
param *.host[*].mobility.changeInterval 1s
param *.host[*].mobility.initialMovementHeading "uniform(0deg, 360deg)"
param *.host[*].mobility.initialMovementElevation "uniform(-90deg, 90deg)"
param *.host[*].mobility.angleDelta uniform(-10deg,10deg)
param *.host[*].mobility.rotationAxisAngle uniform(-10deg,10deg)
param *.host[*].mobility.speed uniform(10mps,20mps)
param *.host[*].mobility.faceForward false
param *.host[*].mobility.initialX 220m
param *.host[*].mobility.initialY 220m
param *.host[*].mobility.initialZ 80m
param *.visualizer.osgVisualizer.typename "\"IntegratedOsgVisualizer\""
param *.visualizer.osgVisualizer.sceneVisualizer.clearColor "\"skyblue\""
param *.visualizer.osgVisualizer.sceneVisualizer.sceneImage "\"showcases/desert\""
param *.visualizer.osgVisualizer.sceneVisualizer.sceneImageSize 5000m
param *.visualizer.osgVisualizer.sceneVisualizer.axisLength 1000m
param *.visualizer.osgVisualizer.sceneVisualizer.sceneMinX -2000m
param *.visualizer.osgVisualizer.sceneVisualizer.sceneMinY -2000m
param *.visualizer.osgVisualizer.sceneVisualizer.sceneMinZ 0m
param *.visualizer.osgVisualizer.sceneVisualizer.sceneMaxX 3000m
param *.visualizer.osgVisualizer.sceneVisualizer.sceneMaxY 3000m
param *.visualizer.osgVisualizer.sceneVisualizer.sceneMaxZ 1000m
param *.visualizer.osgVisualizer.networkNodeVisualizer.displayModuleName false
param *.visualizer.*.mobilityVisualizer.displayMobility true
param *.visualizer.*.mobilityVisualizer.displayPositions true
param *.visualizer.*.mobilityVisualizer.displayOrientations false
param *.visualizer.*.mobilityVisualizer.displayVelocities true
param *.visualizer.*.mobilityVisualizer.displayMovementTrails true
param *.visualizer.*.mobilityVisualizer.animationSpeed 3
param **.constraintAreaMinX 0m
param **.constraintAreaMinY 0m
param **.constraintAreaMinZ 0m
param **.constraintAreaMaxX 1000m
param **.constraintAreaMaxY 1000m
param **.constraintAreaMaxZ 1000m
param **.networkConfiguratorModule "\"\""

vector 0 MysterioCommunication2.host[0].energyStorage residualEnergyCapacity:vector ETV
attr interpolationmode linear
attr source residualEnergyCapacityChanged
attr title "Residual energy capacity, vector"
vector 1 MysterioCommunication2.host[0].energyGenerator powerGeneration:vector ETV
attr interpolationmode sample-hold
attr source powerGenerationChanged
attr title "Power generation, vector"
vector 2 MysterioCommunication2.host[1].energyStorage residualEnergyCapacity:vector ETV
attr interpolationmode linear
attr source residualEnergyCapacityChanged
attr title "Residual energy capacity, vector"
vector 3 MysterioCommunication2.host[1].energyGenerator powerGeneration:vector ETV
attr interpolationmode sample-hold
attr source powerGenerationChanged
attr title "Power generation, vector"
vector 4 MysterioCommunication2.host[0].energyStorage powerGeneration:vector ETV
attr interpolationmode sample-hold
attr source powerGenerationChanged
attr title "Power generation, vector"
vector 5 MysterioCommunication2.host[1].energyStorage powerGeneration:vector ETV
attr interpolationmode sample-hold
attr source powerGenerationChanged
attr title "Power generation, vector"
0	0	0	0.05
0	0	0.1	0.05
0	2	0.1847401	0.05
0	3	0.2	0.05
0	5	0.3	0.05
0	7	0.4	0.05
0	9	0.5	0.05
0	11	0.6	0.05
0	13	0.7	0.05
0	15	0.8	0.05
0	17	0.9	0.05
0	19	1	0.05
0	20	1.018307488	0.05
0	21	1.1	0.05
0	23	1.2	0.05
0	25	1.3	0.05
0	27	1.4	0.05
0	29	1.5	0.05
0	31	1.6	0.05
0	32	1.627864174	0.05
0	33	1.7	0.05
0	35	1.8	0.05
0	36	1.825077058	0.05
0	37	1.9	0.05
0	39	2	0.05
0	40	2.079490969	0.05
0	41	2.1	0.05
0	43	2.2	0.05
0	45	2.3	0.05
0	46	2.343933193	0.05
0	47	2.4	0.05
0	49	2.5	0.05
0	51	2.6	0.05
0	53	2.7	0.05
0	55	2.8	0.05
0	56	2.82738568	0.05
0	57	2.9	0.05
0	59	3	0.05
0	61	3.1	0.05
0	63	3.2	0.05
0	64	3.264093928	0.05
0	65	3.3	0.05
0	67	3.4	0.05
0	69	3.5	0.05
0	70	3.513167434	0.05
0	71	3.6	0.05
0	73	3.7	0.05
0	75	3.8	0.05
0	77	3.9	0.05
0	79	4	0.05
0	80	4.024783045	0.0495
0	80	4.024783045	0.0495
0	81	4.1	0.04980086782
0	83	4.2	0.05
0	85	4.3	0.05
0	86	4.31977147	0.05
0	87	4.4	0.05
0	89	4.5	0.05
0	90	4.559993053	0.05
0	91	4.6	0.05
0	93	4.7	0.05
0	95	4.8	0.05
0	97	4.9	0.05
0	99	5	0.05
0	100	5.017861318	0.05
0	101	5.1	0.05
0	103	5.2	0.05
0	105	5.3	0.05
0	107	5.4	0.05
0	108	5.458226929	0.05
0	109	5.5	0.05
0	111	5.6	0.05
0	113	5.7	0.05
0	115	5.8	0.05
0	117	5.9	0.05
0	118	5.943613507	0.05
0	119	6	0.05
0	121	6.1	0.05
0	123	6.2	0.05
0	125	6.3	0.05
0	127	6.4	0.05
0	128	6.420767002	0.05
0	129	6.5	0.05
0	131	6.6	0.05
0	133	6.7	0.05
0	135	6.8	0.05
0	137	6.9	0.05
0	138	6.91881415	0.05
0	139	7	0.05
0	141	7.1	0.05
0	143	7.2	0.05
0	144	7.2182119	0.05
0	145	7.3	0.05
0	147	7.4	0.05
0	149	7.5	0.05
0	151	7.6	0.05
0	152	7.633473457	0.05
0	153	7.7	0.05
0	155	7.8	0.05
0	157	7.9	0.05
0	159	8	0.05
0	161	8.1	0.05
0	162	8.103923671	0.0495
0	162	8.103923671	0.0495
0	163	8.2	0.049884305316
0	165	8.3	0.05
0	166	8.372484994	0.05
0	167	8.4	0.05
0	169	8.5	0.05
0	171	8.6	0.05
0	173	8.7	0.05
0	175	8.8	0.05
0	176	8.813471995	0.05
0	177	8.9	0.05
0	179	9	0.05
0	181	9.1	0.05
0	183	9.2	0.05
0	185	9.3	0.05
0	186	9.384116326	0.05
0	187	9.4	0.05
0	189	9.5	0.05
0	191	9.6	0.05
0	193	9.7	0.05
0	195	9.8	0.05
0	197	9.9	0.05
0	199	10	0.05
0	200	10.079046127	0.05
0	201	10.1	0.05
0	203	10.2	0.05
0	205	10.3	0.05
0	207	10.4	0.05
0	209	10.5	0.05
0	210	10.587569029	0.05
0	211	10.6	0.05
0	213	10.7	0.05
0	215	10.8	0.05
0	217	10.9	0.05
0	219	11	0.05
0	221	11.1	0.05
0	222	11.156706757	0.05
0	223	11.2	0.05
0	225	11.3	0.05
0	227	11.4	0.05
0	229	11.5	0.05
0	231	11.6	0.05
0	232	11.693472745	0.05
0	233	11.7	0.05
0	235	11.8	0.05
0	237	11.9	0.05
0	238	11.972142727	0.05
0	239	12	0.05
0	241	12.1	0.05
0	243	12.2	0.05
0	244	12.262941694	0.05
0	245	12.3	0.05
0	247	12.4	0.05
0	249	12.5	0.05
0	251	12.6	0.05
0	253	12.7	0.05
0	254	12.741806689	0.05
0	255	12.8	0.05
0	257	12.9	0.05
0	259	13	0.05
0	261	13.1	0.05
0	263	13.2	0.05
0	264	13.207839043	0.05
0	265	13.3	0.05
0	267	13.4	0.05
0	268	13.478729185	0.05
0	269	13.5	0.05
0	271	13.6	0.05
0	273	13.7	0.05
0	275	13.8	0.05
0	277	13.9	0.05
0	278	13.927157539	0.05
0	279	14	0.05
0	281	14.1	0.05
0	283	14.2	0.05
0	285	14.3	0.05
0	286	14.368552888	0.05
0	287	14.4	0.05
0	289	14.5	0.05
0	291	14.6	0.05
0	293	14.7	0.05
0	295	14.8	0.05
0	296	14.891957392	0.05
0	297	14.9	0.05
0	299	15	0.05
0	301	15.1	0.05
0	303	15.2	0.05
0	305	15.3	0.05
0	306	15.37074595	0.05
0	307	15.4	0.05
0	309	15.5	0.05
0	311	15.6	0.05
0	313	15.7	0.05
0	315	15.8	0.05
0	316	15.835550647	0.05
0	317	15.9	0.05
0	319	16	0.05
0	321	16.1	0.05
0	323	16.2	0.05
0	325	16.3	0.05
0	327	16.4	0.05
0	328	16.448602639	0.05
0	329	16.5	0.05
0	331	16.6	0.05
0	333	16.7	0.05
0	335	16.8	0.05
0	337	16.9	0.05
0	338	16.978110745	0.05
0	339	17	0.05
0	341	17.1	0.05
0	343	17.2	0.05
0	345	17.3	0.05
0	347	17.4	0.05
0	349	17.5	0.05
0	350	17.505553513	0.05
0	351	17.6	0.05
0	353	17.7	0.05
0	355	17.8	0.05
0	357	17.9	0.05
0	359	18	0.05
0	360	18.019362754	0.05
0	361	18.1	0.05
0	363	18.2	0.05
0	365	18.3	0.05
0	367	18.4	0.05
0	369	18.5	0.05
0	370	18.515702587	0.05
0	371	18.6	0.05
0	373	18.7	0.05
0	375	18.8	0.05
0	377	18.9	0.05
0	379	19	0.05
0	381	19.1	0.05
0	382	19.185484762	0.05
0	383	19.2	0.05
0	385	19.3	0.05
0	387	19.4	0.05
0	389	19.5	0.05
0	391	19.6	0.05
0	392	19.673457289	0.05
0	393	19.7	0.05
0	395	19.8	0.05
0	397	19.9	0.05
0	398	19.964873323	0.05
0	399	20	0.05
0	401	20.1	0.05
0	403	20.2	0.05
0	405	20.3	0.05
0	407	20.4	0.05
0	408	20.472769258	0.05
0	409	20.5	0.05
0	411	20.6	0.05
0	413	20.7	0.05
0	414	20.726671846	0.0495
0	414	20.726671846	0.0495
0	415	20.8	0.049793312616
0	417	20.9	0.05
0	419	21	0.05
0	420	21.002354896	0.05
0	421	21.1	0.05
0	423	21.2	0.05
0	425	21.3	0.05
0	427	21.4	0.05
0	428	21.46797703	0.05
0	429	21.5	0.05
0	431	21.6	0.05
0	433	21.7	0.05
0	435	21.8	0.05
0	437	21.9	0.05
0	438	21.977454553	0.05
0	439	22	0.05
0	441	22.1	0.05
0	443	22.2	0.05
0	445	22.3	0.05
0	447	22.4	0.05
0	448	22.434225358	0.05
0	449	22.5	0.05
0	451	22.6	0.05
0	453	22.7	0.05
0	455	22.8	0.05
0	457	22.9	0.05
0	458	22.902005899	0.05
0	459	23	0.05
0	461	23.08057828677	0.05
0	462	23.1	0.05
0	464	23.2	0.05
0	466	23.3	0.05
0	467	23.334208822	0.05
0	468	23.4	0.05
0	470	23.5	0.0495
0	470	23.5	0.0495
0	472	23.6	0.0495
0	473	23.615127178	0.0495
0	474	23.7	0.0495
0	476	23.8	0.0495
0	477	23.896781644	0.0495
0	478	23.9	0.0495
0	480	24	0.0495
0	482	24.1	0.0495
0	483	24.155158165	0.0495
0	484	24.2	0.0495
0	486	24.3	0.0495
0	487	24.38491876	0.0495
0	488	24.4	0.0495
0	490	24.5	0.0495
0	492	24.6	0.0495
0	493	24.652355191	0.0495
0	494	24.7	0.049005
0	494	24.7	0.049005
0	496	24.8	0.049005
0	498	24.9	0.049005
0	499	24.923518537	0.049005
0	500	25	0.049005
0	502	25.1	0.049005
0	503	25.19372707	0.049005
0	504	25.2	0.049005
0	506	25.3	0.049005
0	508	25.4	0.049005
0	510	25.5	0.049005
0	512	25.6	0.049005
0	514	25.7	0.049005
0	516	25.8	0.049005
0	517	25.819038535	0.049005
0	518	25.9	0.049005
0	520	26	0.049005
0	522	26.1	0.04851495
0	522	26.1	0.04851495
0	524	26.2	0.04851495
0	526	26.3	0.04851495
0	528	26.4	0.04851495
0	530	26.5	0.04851495
0	531	26.518318372	0.04851495
0	532	26.6	0.04851495
0	534	26.633716071587	0.04851495
0	535	26.7	0.048780085713652
0	537	26.754978571587	0.049
0	538	26.8	0.049180085713652
0	540	26.879978571587	0.0495
0	541	26.9	0.049580085713652
0	543	27	0.049980085713652
0	545	27.004978571587	0.05
0	545	27.053168296	0.05
0	546	27.1	0.05
0	548	27.2	0.05
0	550	27.3	0.05
0	552	27.4	0.0495
0	552	27.4	0.0495
0	554	27.5	0.0499
0	555	27.532889488	0.05
0	556	27.6	0.05
0	558	27.7	0.05
0	560	27.8	0.05
0	561	27.822047611	0.05
0	562	27.9	0.05
0	564	28	0.05
0	565	28.087783381	0.05
0	566	28.1	0.05
0	568	28.2	0.05
0	570	28.3	0.05
0	572	28.4	0.05
0	574	28.5	0.05
0	576	28.6	0.05
0	577	28.603125412	0.05
0	578	28.7	0.0495
0	578	28.7	0.0495
0	580	28.8	0.0499
0	582	28.9	0.05
0	584	29	0.05
0	586	29.1	0.05
0	588	29.2	0.05
0	589	29.226543367	0.05
0	590	29.3	0.05
0	592	29.4	0.05
0	594	29.5	0.05
0	596	29.6	0.05
0	598	29.7	0.05
0	599	29.769404635	0.05
0	600	29.8	0.05
0	602	29.9	0.05
0	604	30	0.05
0	606	30.1	0.05
0	608	30.2	0.0495
0	608	30.2	0.0495
0	610	30.3	0.0499
0	611	30.330400405	0.05
0	612	30.4	0.05
0	614	30.5	0.05
0	616	30.6	0.05
0	618	30.7	0.05
0	619	30.771618529	0.05
0	620	30.8	0.05
0	622	30.9	0.05
0	624	31	0.05
0	626	31.1	0.05
0	628	31.2	0.05
0	629	31.265922301	0.05
0	630	31.3	0.05
0	632	31.4	0.05
0	634	31.5	0.05
0	636	31.6	0.0495
0	636	31.6	0.0495
0	638	31.7	0.0499
0	639	31.797639109	0.05
0	640	31.8	0.05
0	642	31.9	0.05
0	644	32	0.05
0	645	32.086256032	0.05
0	646	32.1	0.05
0	648	32.2	0.05
0	650	32.3	0.05
0	652	32.4	0.05
0	654	32.5	0.05
0	655	32.597568976	0.05
0	656	32.6	0.05
0	658	32.7	0.05
0	660	32.8	0.05
0	662	32.9	0.05
0	664	33	0.0495
0	664	33	0.0495
0	665	33.088036	0.049852144
0	666	33.1	0.0499
0	668	33.2	0.05
0	670	33.3	0.05
0	671	33.37793197	0.05
0	672	33.4	0.05
0	674	33.5	0.05
0	676	33.6	0.05
0	678	33.7	0.05
0	680	33.8	0.05
0	681	33.85969801	0.05
0	682	33.9	0.05
0	684	34	0.05
0	686	34.1	0.05
0	688	34.2	0.05
0	689	34.285345672	0.05
0	690	34.3	0.0495
0	690	34.3	0.0495
0	692	34.4	0.0499
0	694	34.5	0.05
0	696	34.6	0.05
0	698	34.7	0.05
0	699	34.778399629	0.05
0	700	34.8	0.05
0	702	34.9	0.05
0	704	35	0.05
0	706	35.1	0.05
0	708	35.2	0.05
0	709	35.258724244	0.05
0	710	35.3	0.05
0	712	35.4	0.05
0	714	35.5	0.05
0	715	35.542144789	0.05
0	716	35.6	0.05
0	718	35.7	0.0495
0	718	35.7	0.0495
0	720	35.8	0.0499
0	722	35.9	0.05
0	723	35.972141053	0.05
0	724	36	0.05
0	726	36.1	0.05
0	728	36.2	0.05
0	730	36.3	0.05
0	732	36.4	0.05
0	734	36.5	0.05
0	735	36.594283732	0.05
0	736	36.6	0.05
0	738	36.7	0.05
0	740	36.8	0.05
0	742	36.9	0.05
0	744	37	0.05
0	746	37.1	0.05
0	748	37.2	0.0495
0	748	37.2	0.0495
0	749	37.227400459	0.049609601836
0	750	37.3	0.0499
0	752	37.4	0.05
0	754	37.5	0.05
0	756	37.6	0.05
0	758	37.7	0.05
0	759	37.719925477	0.05
0	760	37.8	0.05
0	762	37.9	0.05
0	764	38	0.05
0	766	38.1	0.05
0	767	38.104771177	0.05
0	768	38.2	0.05
0	770	38.3	0.05
0	772	38.4	0.05
0	773	38.491962004	0.05
0	774	38.5	0.0495
0	774	38.5	0.0495
0	776	38.6	0.0499
0	778	38.7	0.05
0	780	38.8	0.05
0	782	38.9	0.05
0	783	38.980085581	0.05
0	784	39	0.05
0	786	39.1	0.05
0	788	39.2	0.05
0	790	39.3	0.05
0	792	39.4	0.05
0	793	39.457295848	0.05
0	794	39.5	0.05
0	796	39.6	0.05
0	798	39.7	0.05
0	800	39.8	0.05
0	802	39.9	0.05
0	803	39.964166383	0.05
0	804	40	0.05
0	806	40.1	0.05
0	808	40.2	0.05
0	810	40.3	0.05
0	812	40.4	0.05
0	814	40.5	0.05
0	815	40.527703417	0.05
0	816	40.6	0.05
0	818	40.7	0.05
0	820	40.8	0.05
0	822	40.9	0.05
0	824	41	0.05
0	826	41.1	0.05
0	827	41.13156148	0.05
0	828	41.2	0.05
0	830	41.3	0.05
0	832	41.4	0.0495
0	832	41.4	0.0495
0	834	41.5	0.0499
0	836	41.6	0.05
0	838	41.7	0.05
0	839	41.710753471	0.05
0	840	41.8	0.05
0	842	41.9	0.05
0	844	42	0.05
0	846	42.1	0.05
0	848	42.2	0.05
0	849	42.258875314	0.05
0	850	42.3	0.05
0	852	42.4	0.05
0	854	42.5	0.05
0	856	42.6	0.05
0	857	42.677638093	0.05
0	858	42.7	0.05
0	860	42.8	0.0495
0	860	42.8	0.0495
0	862	42.9	0.0499
0	864	43	0.05
0	866	43.1	0.05
0	867	43.105948921	0.05
0	868	43.2	0.05
0	870	43.3	0.05
0	872	43.4	0.05
0	874	43.5	0.05
0	875	43.562403934	0.05
0	876	43.6	0.05
0	878	43.7	0.05
0	880	43.8	0.05
0	882	43.9	0.05
0	883	43.949619175	0.05
0	884	44	0.05
0	886	44.1	0.05
0	888	44.2	0.0495
0	888	44.2	0.0495
0	890	44.3	0.0499
0	891	44.396015158	0.05
0	892	44.4	0.05
0	894	44.5	0.05
0	896	44.6	0.05
0	898	44.7	0.05
0	900	44.8	0.05
0	902	44.9	0.05
0	903	44.925375139	0.05
0	904	45	0.05
0	906	45.1	0.05
0	908	45.2	0.05
0	910	45.3	0.05
0	911	45.345516322	0.05
0	912	45.4	0.05
0	914	45.5	0.05
0	916	45.6	0.0495
0	916	45.6	0.0495
0	918	45.7	0.0499
0	920	45.8	0.05
0	921	45.819612268	0.05
0	922	45.9	0.05
0	924	46	0.05
0	926	46.1	0.05
0	928	46.2	0.05
0	930	46.3	0.05
0	931	46.325329621	0.05
0	932	46.4	0.05
0	934	46.5	0.05
0	936	46.6	0.05
0	938	46.7	0.05
0	939	46.782414796	0.05
0	940	46.8	0.05
0	942	46.9	0.05
0	944	46.956175101225	0.0495
0	944	46.956175101225	0.0495
0	946	47	0.0495
0	948	47.1	0.0495
0	950	47.2	0.0495
0	952	47.3	0.0495
0	953	47.308992979	0.0495
0	954	47.4	0.0495
0	956	47.5	0.0495
0	958	47.6	0.0495
0	960	47.7	0.0495
0	961	47.783530441	0.0495
0	962	47.8	0.0495
0	964	47.9	0.0495
0	966	48	0.0495
0	968	48.1	0.0495
0	970	48.2	0.0495
0	971	48.26227039	0.0495
0	972	48.3	0.049005
0	972	48.3	0.049005
0	974	48.4	0.049005
0	976	48.5	0.049005
0	978	48.6	0.049005
0	980	48.7	0.049005
0	981	48.736183843	0.049005
0	982	48.8	0.049005
0	984	48.9	0.049005
0	986	49	0.049005
0	988	49.1	0.049005
0	990	49.2	0.049005
0	991	49.251182887	0.049005
0	992	49.3	0.049005
0	994	49.4	0.049005
0	996	49.5	0.049005
0	998	49.6	0.049005
0	999	49.694458102	0.049005
0	1000	49.7	0.04851495
0	1000	49.7	0.04851495
0	1002	49.8	0.04851495
0	1004	49.9	0.04851495
0	1005	49.98764794	0.04851495
0	1006	50	0.04851495
0	1008	50.1	0.04851495
0	1010	50.2	0.04851495
0	1012	50.3	0.04851495
0	1014	50.4	0.04851495
0	1015	50.482961839	0.04851495
0	1016	50.5	0.04851495
0	1018	50.6	0.04851495
0	1021	50.7	0.04851495
0	1023	50.8	0.04851495
0	1025	50.9	0.04851495
0	1025	50.942367931	0.04851495
0	1027	51	0.04851495
0	1029	51.1	0.04851495
0	1031	51.2	0.04851495
0	1033	51.3	0.04851495
0	1035	51.4	0.04851495
0	1035	51.403048543	0.04851495
0	1037	51.5	0.04851495
0	1039	51.6	0.04851495
0	1039	51.676092001	0.04851495
0	1041	51.7	0.04851495
0	1043	51.8	0.04851495
0	1045	51.9	0.04851495
0	1047	52	0.04851495
0	1049	52.1	0.04851495
0	1049	52.132515628	0.04851495
0	1051	52.2	0.04851495
0	1053	52.3	0.04851495
0	1055	52.4	0.04851495
0	1057	52.5	0.04851495
0	1059	52.6	0.04851495
0	1059	52.657534978	0.04851495
0	1061	52.7	0.04851495
0	1063	52.8	0.04851495
0	1065	52.9	0.04851495
0	1067	53	0.04851495
0	1069	53.1	0.04851495
0	1071	53.2	0.04851495
0	1073	53.3	0.04851495
0	1073	53.309571121	0.04851495
0	1075	53.4	0.04851495
0	1077	53.5	0.04851495
0	1079	53.6	0.04851495
0	1081	53.7	0.04851495
0	1083	53.8	0.04851495
0	1085	53.9	0.04851495
0	1085	53.967834706	0.04851495
0	1087	54	0.04851495
0	1089	54.1	0.04851495
0	1091	54.2	0.04851495
0	1091	54.24562147	0.04851495
0	1093	54.3	0.04851495
0	1095	54.4	0.04851495
0	1097	54.5	0.04851495
0	1099	54.6	0.04851495
0	1101	54.7	0.04851495
0	1101	54.748515304	0.04851495
0	1103	54.8	0.04851495
0	1105	54.9	0.04851495
0	1107	55	0.04851495
0	1109	55.1	0.04851495
0	1110	55.193283793	0.04851495
0	1111	55.2	0.04851495
0	1113	55.3	0.04851495
0	1115	55.4	0.04851495
0	1117	55.5	0.04851495
0	1119	55.6	0.04851495
0	1120	55.695263122	0.04851495
0	1121	55.7	0.04851495
0	1123	55.8	0.04851495
0	1125	55.9	0.04851495
0	1127	56	0.04851495
0	1129	56.1	0.04851495
0	1131	56.2	0.04851495
0	1131	56.265526714	0.04851495
0	1133	56.3	0.04851495
0	1135	56.4	0.04851495
0	1137	56.5	0.04851495
0	1139	56.6	0.04851495
0	1141	56.7	0.04851495
0	1141	56.710381069	0.04851495
0	1142	56.769634267061	0.04851495
0	1144	56.869634267061	0.04851495
0	1146	56.969634267061	0.04851495
0	1148	57.069634267061	0.04851495
0	1150	57.169634267061	0.04851495
0	1151	57.259452526	0.04851495
0	1152	57.269634267061	0.04851495
0	1154	57.369634267061	0.04851495
0	1156	57.469634267061	0.04851495
0	1158	57.569634267061	0.04851495
0	1160	57.669634267061	0.04851495
0	1162	57.769634267061	0.04851495
0	1164	57.869634267061	0.04851495
0	1166	57.969634267061	0.04851495
0	1168	58.069634267061	0.04851495
0	1169	58.118369269	0.04851495
0	1170	58.169634267061	0.0480298005
0	1170	58.169634267061	0.0480298005
0	1172	58.269634267061	0.0480298005
0	1174	58.369634267061	0.0480298005
0	1176	58.469634267061	0.0480298005
0	1178	58.569634267061	0.0480298005
0	1179	58.601344603	0.0480298005
0	1180	58.669634267061	0.0480298005
0	1182	58.769634267061	0.0480298005
0	1184	58.869634267061	0.0480298005
0	1185	58.889488297	0.0480298005
0	1186	58.969634267061	0.0480298005
0	1188	59.069634267061	0.0480298005
0	1190	59.169634267061	0.0480298005
0	1192	59.269634267061	0.0480298005
0	1193	59.317840873	0.0480298005
0	1194	59.369634267061	0.0480298005
0	1196	59.469634267061	0.0480298005
0	1198	59.569634267061	0.047549502495
0	1198	59.569634267061	0.047549502495
0	1198	59.574342472	0.047549502495
0	1200	59.669634267061	0.047549502495
0	1202	59.769634267061	0.047549502495
0	1204	59.869634267061	0.047549502495
0	1206	59.969634267061	0.047549502495
0	1208	60.069634267061	0.047549502495
0	1209	60.085850794	0.047549502495
0	1210	60.169634267061	0.047549502495
0	1212	60.269634267061	0.047549502495
0	1214	60.369634267061	0.047549502495
0	1216	60.469634267061	0.047549502495
0	1217	60.551457139	0.047549502495
0	1218	60.569634267061	0.047549502495
0	1220	60.669634267061	0.047549502495
0	1222	60.769634267061	0.047549502495
0	1223	60.848674975	0.047549502495
0	1224	60.869634267061	0.04707400747005
0	1224	60.869634267061	0.04707400747005
0	1226	60.969634267061	0.04707400747005
0	1228	61.069634267061	0.04707400747005
0	1230	61.169634267061	0.04707400747005
0	1232	61.269634267061	0.04707400747005
0	1233	61.310187553	0.04707400747005
0	1234	61.369634267061	0.04707400747005
0	1236	61.469634267061	0.04707400747005
0	1238	61.569634267061	0.04707400747005
0	1240	61.669634267061	0.04707400747005
0	1241	61.743973258	0.04707400747005
0	1242	61.769634267061	0.04707400747005
0	1244	61.869634267061	0.04707400747005
0	1246	61.969634267061	0.04707400747005
0	1247	62.030884006	0.04707400747005
0	1248	62.069634267061	0.04707400747005
0	1250	62.169634267061	0.04707400747005
0	1252	62.269634267061	0.04660326739535
0	1252	62.269634267061	0.04660326739535
0	1254	62.369634267061	0.04660326739535
0	1255	62.454358051	0.04660326739535
0	1256	62.469634267061	0.04660326739535
0	1258	62.569634267061	0.04660326739535
0	1260	62.669634267061	0.04660326739535
0	1261	62.739902272	0.04660326739535
0	1262	62.769634267061	0.04660326739535
0	1264	62.869634267061	0.04660326739535
0	1266	62.969634267061	0.04660326739535
0	1267	63.031594663	0.04660326739535
0	1268	63.069634267061	0.04660326739535
0	1270	63.169634267061	0.04660326739535
0	1272	63.269634267061	0.04660326739535
0	1273	63.304147309	0.04660326739535
0	1274	63.369634267061	0.04660326739535
0	1276	63.469634267061	0.04660326739535
0	1278	63.569634267061	0.046137234721396
0	1278	63.569634267061	0.046137234721396
0	1280	63.669634267061	0.046137234721396
0	1282	63.769634267061	0.046137234721396
0	1282	63.776968834	0.046137234721396
0	1284	63.869634267061	0.046137234721396
0	1286	63.969634267061	0.046137234721396
0	1288	64.069634267061	0.046137234721396
0	1290	64.169634267061	0.046137234721396
0	1291	64.223799553	0.046137234721396
0	1292	64.269634267061	0.046137234721396
0	1294	64.369634267061	0.046137234721396
0	1296	64.469634267061	0.046137234721396
0	1298	64.569634267061	0.046137234721396
0	1300	64.669634267061	0.046137234721396
0	1301	64.734045907	0.046137234721396
0	1302	64.769634267061	0.046137234721396
0	1304	64.869634267061	0.046137234721396
0	1306	64.969634267061	0.045675862374182
0	1306	64.969634267061	0.045675862374182
0	1308	65.069634267061	0.045675862374182
0	1310	65.169634267061	0.045675862374182
0	1310	65.182126042	0.045675862374182
0	1312	65.269634267061	0.045675862374182
0	1314	65.369634267061	0.045675862374182
0	1316	65.469634267061	0.045675862374182
0	1318	65.569634267061	0.045675862374182
0	1320	65.669634267061	0.045675862374182
0	1320	65.676003778	0.045675862374182
0	1322	65.769634267061	0.045675862374182
0	1324	65.869634267061	0.045675862374182
0	1326	65.969634267061	0.045675862374182
0	1328	66.069634267061	0.045675862374182
0	1329	66.121847188	0.045675862374182
0	1330	66.169634267061	0.045675862374182
0	1332	66.269634267061	0.045675862374182
0	1334	66.369634267061	0.04521910375044
0	1334	66.369634267061	0.04521910375044
0	1336	66.469634267061	0.04521910375044
0	1338	66.569634267061	0.04521910375044
0	1340	66.669634267061	0.04521910375044
0	1341	66.695190685	0.04521910375044
0	1342	66.769634267061	0.04521910375044
0	1344	66.869634267061	0.04521910375044
0	1346	66.969634267061	0.04521910375044
0	1348	67.069634267061	0.04521910375044
0	1350	67.169634267061	0.04521910375044
0	1352	67.269634267061	0.04521910375044
0	1353	67.343314693	0.04521910375044
0	1354	67.369634267061	0.04521910375044
0	1356	67.469634267061	0.04521910375044
0	1358	67.569634267061	0.04521910375044
0	1360	67.669634267061	0.04521910375044
0	1362	67.769634267061	0.04521910375044
0	1364	67.869634267061	0.044766912712936
0	1364	67.869634267061	0.044766912712936
0	1366	67.969634267061	0.044766912712936
0	1367	67.990359271	0.044766912712936
0	1368	68.069634267061	0.044766912712936
0	1370	68.169634267061	0.044766912712936
0	1372	68.269634267061	0.044766912712936
0	1374	68.369634267061	0.044766912712936
0	1376	68.469634267061	0.044766912712936
0	1378	68.569634267061	0.044766912712936
0	1380	68.669634267061	0.044766912712936
0	1381	68.703897052	0.044766912712936
0	1382	68.769634267061	0.044766912712936
0	1384	68.869634267061	0.044766912712936
0	1386	68.969634267061	0.044766912712936
0	1388	69.069634267061	0.044766912712936
0	1390	69.169634267061	0.044766912712936
0	1392	69.269634267061	0.044766912712936
0	1393	69.295920805	0.044766912712936
0	1394	69.369634267061	0.044766912712936
0	1396	69.469634267061	0.044766912712936
0	1398	69.569634267061	0.044766912712936
0	1400	69.669634267061	0.044766912712936
0	1402	69.769634267061	0.044766912712936
0	1404	69.869634267061	0.044766912712936
0	1406	69.969634267061	0.044766912712936
0	1407	69.991917538	0.044766912712936
0	1408	70.069634267061	0.044766912712936
0	1410	70.169634267061	0.044766912712936
0	1412	70.269634267061	0.044766912712936
0	1414	70.369634267061	0.044766912712936
0	1416	70.469634267061	0.044766912712936
0	1418	70.569634267061	0.044766912712936
0	1420	70.669634267061	0.044766912712936
0	1421	70.729042774	0.044766912712936
0	1422	70.769634267061	0.044319243585806
0	1422	70.769634267061	0.044319243585806
0	1424	70.869634267061	0.044319243585806
0	1426	70.969634267061	0.044319243585806
0	1428	71.069634267061	0.044319243585806
0	1430	71.169634267061	0.044319243585806
0	1432	71.269634267061	0.044319243585806
0	1433	71.349630535	0.044319243585806
0	1434	71.369634267061	0.044319243585806
0	1436	71.469634267061	0.044319243585806
0	1438	71.569634267061	0.044319243585806
0	1440	71.669634267061	0.044319243585806
0	1442	71.769634267061	0.044319243585806
0	1444	71.869634267061	0.044319243585806
0	1445	71.941092526	0.044319243585806
0	1446	71.969634267061	0.044319243585806
0	1448	72.069634267061	0.044319243585806
0	1450	72.169634267061	0.044319243585806
0	1452	72.269634267061	0.043876051149948
0	1452	72.269634267061	0.043876051149948
0	1454	72.369634267061	0.043876051149948
0	1455	72.397477735	0.043876051149948
0	1456	72.469634267061	0.043876051149948
0	1458	72.569634267061	0.043876051149948
0	1460	72.669634267061	0.043876051149948
0	1462	72.769634267061	0.043876051149948
0	1463	72.830074852	0.043876051149948
0	1464	72.869634267061	0.043876051149948
0	1466	72.969634267061	0.043876051149948
0	1468	73.069634267061	0.043876051149948
0	1470	73.169634267061	0.043876051149948
0	1472	73.269634267061	0.043876051149948
0	1473	73.312424821	0.043876051149948
0	1474	73.369634267061	0.043876051149948
0	1476	73.469634267061	0.043876051149948
0	1478	73.569634267061	0.043876051149948
0	1480	73.669634267061	0.043437290638449
0	1480	73.669634267061	0.043437290638449
0	1482	73.769634267061	0.043437290638449
0	1483	73.823397037	0.043437290638449
0	1484	73.869634267061	0.043437290638449
0	1486	73.969634267061	0.043437290638449
0	1488	74.069634267061	0.043437290638449
0	1490	74.169634267061	0.043437290638449
0	1491	74.264693566	0.043437290638449
0	1492	74.269634267061	0.043437290638449
0	1494	74.369634267061	0.043437290638449
0	1496	74.469634267061	0.043437290638449
0	1498	74.569634267061	0.043437290638449
0	1500	74.669634267061	0.043437290638449
0	1502	74.769634267061	0.043437290638449
0	1503	74.806961641	0.043437290638449
0	1504	74.869634267061	0.043437290638449
0	1506	74.969634267061	0.043437290638449
0	1508	75.069634267061	0.043002917732064
0	1508	75.069634267061	0.043002917732064
0	1510	75.169634267061	0.043002917732064
0	1512	75.269634267061	0.043002917732064
0	1513	75.326710336	0.043002917732064
0	1514	75.369634267061	0.043002917732064
0	1516	75.469634267061	0.043002917732064
0	1518	75.569634267061	0.043002917732064
0	1520	75.669634267061	0.043002917732064
0	1522	75.769634267061	0.043002917732064
0	1523	75.826053325	0.043002917732064
0	1524	75.869634267061	0.043002917732064
0	1526	75.969634267061	0.043002917732064
0	1528	76.069634267061	0.043002917732064
0	1530	76.169634267061	0.043002917732064
0	1532	76.269634267061	0.043002917732064
0	1533	76.344659512	0.043002917732064
0	1534	76.369634267061	0.043002917732064
0	1536	76.469634267061	0.042572888554744
0	1536	76.469634267061	0.042572888554744
0	1538	76.569634267061	0.042572888554744
0	1540	76.669634267061	0.042572888554744
0	1542	76.769634267061	0.042572888554744
0	1544	76.869634267061	0.042572888554744
0	1546	76.969634267061	0.042572888554744
0	1547	76.986243784	0.042572888554744
0	1548	77.069634267061	0.042572888554744
0	1550	77.169634267061	0.042572888554744
0	1552	77.269634267061	0.042572888554744
0	1554	77.369634267061	0.042572888554744
0	1555	77.467565458	0.042572888554744
0	1556	77.469634267061	0.042572888554744
0	1558	77.569634267061	0.042572888554744
0	1560	77.669634267061	0.042572888554744
0	1561	77.700734416	0.042572888554744
0	1562	77.769634267061	0.042572888554744
0	1564	77.869634267061	0.042147159669196
0	1564	77.869634267061	0.042147159669196
0	1566	77.969634267061	0.042147159669196
0	1568	78.069634267061	0.042147159669196
0	1570	78.169634267061	0.042147159669196
0	1571	78.192335302	0.042147159669196
0	1572	78.269634267061	0.042147159669196
0	1574	78.369634267061	0.042147159669196
0	1576	78.469634267061	0.042147159669196
0	1578	78.569634267061	0.042147159669196
0	1580	78.669634267061	0.042147159669196
0	1581	78.699315409	0.042147159669196
0	1582	78.769634267061	0.042147159669196
0	1584	78.869634267061	0.042147159669196
0	1586	78.969634267061	0.042147159669196
0	1588	79.069634267061	0.042147159669196
0	1590	79.169634267061	0.042147159669196
0	1591	79.222324966	0.042147159669196
0	1592	79.269634267061	0.041725688072504
0	1592	79.269634267061	0.041725688072504
0	1594	79.369634267061	0.041725688072504
0	1596	79.469634267061	0.041725688072504
0	1598	79.569634267061	0.041725688072504
0	1600	79.669634267061	0.041725688072504
0	1602	79.769634267061	0.041725688072504
0	1604	79.869634267061	0.041725688072504
0	1605	79.941527404	0.041725688072504
0	1606	79.969634267061	0.041725688072504
0	1608	80.069634267061	0.041725688072504
0	1610	80.169634267061	0.041725688072504
0	1612	80.269634267061	0.041725688072504
0	1614	80.369634267061	0.041725688072504
0	1616	80.469634267061	0.041725688072504
0	1617	80.555774053	0.041725688072504
0	1618	80.569634267061	0.041725688072504
0	1620	80.669634267061	0.041725688072504
0	1622	80.769634267061	0.041308431191779
0	1622	80.769634267061	0.041308431191779
0	1624	80.869634267061	0.041308431191779
0	1626	80.969634267061	0.041308431191779
0	1628	81.069634267061	0.041308431191779
0	1630	81.169634267061	0.041308431191779
0	1631	81.226133089	0.041308431191779
0	1632	81.269634267061	0.041308431191779
0	1634	81.369634267061	0.041308431191779
0	1636	81.469634267061	0.041308431191779
0	1638	81.569634267061	0.041308431191779
0	1640	81.669634267061	0.041308431191779
0	1642	81.769634267061	0.041308431191779
0	1643	81.787372525	0.041308431191779
0	1644	81.869634267061	0.041308431191779
0	1646	81.969634267061	0.041308431191779
0	1648	82.069634267061	0.041308431191779
0	1650	82.169634267061	0.041308431191779
0	1652	82.269634267061	0.040895346879862
0	1652	82.269634267061	0.040895346879862
0	1653	82.325699587	0.040895346879862
0	1654	82.369634267061	0.040895346879862
0	1656	82.469634267061	0.040895346879862
0	1658	82.569634267061	0.040895346879862
0	1660	82.669634267061	0.040895346879862
0	1662	82.769634267061	0.040895346879862
0	1664	82.869634267061	0.040895346879862
0	1664	82.875853171	0.040895346879862
0	1666	82.969634267061	0.040895346879862
0	1668	83.069634267061	0.040895346879862
0	1670	83.169634267061	0.040895346879862
0	1672	83.269634267061	0.040895346879862
0	1674	83.369634267061	0.040895346879862
0	1676	83.469634267061	0.040895346879862
0	1677	83.504400787	0.040895346879862
0	1678	83.569634267061	0.040895346879862
0	1680	83.669634267061	0.040486393411063
0	1680	83.669634267061	0.040486393411063
0	1682	83.769634267061	0.040486393411063
0	1684	83.869634267061	0.040486393411063
0	1685	83.921361157	0.040486393411063
0	1686	83.969634267061	0.040486393411063
0	1688	84.069634267061	0.040486393411063
0	1690	84.169634267061	0.040486393411063
0	1692	84.269634267061	0.040486393411063
0	1693	84.310299388	0.040486393411063
0	1694	84.369634267061	0.040486393411063
0	1696	84.469634267061	0.040486393411063
0	1698	84.569634267061	0.040486393411063
0	1700	84.669634267061	0.040486393411063
0	1701	84.710260723	0.040486393411063
0	1702	84.769634267061	0.040486393411063
0	1704	84.869634267061	0.040486393411063
0	1706	84.969634267061	0.040486393411063
0	1708	85.069634267061	0.040081529476952
0	1708	85.069634267061	0.040081529476952
0	1709	85.152800392	0.040081529476952
0	1710	85.169634267061	0.040081529476952
0	1712	85.269634267061	0.040081529476952
0	1714	85.369634267061	0.040081529476952
0	1715	85.448762146	0.040081529476952
0	1716	85.469634267061	0.040081529476952
0	1718	85.569634267061	0.040081529476952
0	1720	85.669634267061	0.040081529476952
0	1722	85.769634267061	0.040081529476952
0	1724	85.869634267061	0.040081529476952
0	1726	85.969634267061	0.040081529476952
0	1727	86.008551781	0.040081529476952
0	1728	86.069634267061	0.040081529476952
0	1730	86.169634267061	0.040081529476952
0	1732	86.269634267061	0.040081529476952
0	1734	86.369634267061	0.040081529476952
0	1736	86.469634267061	0.039680714182183
0	1736	86.469634267061	0.039680714182183
0	1738	86.569634267061	0.039680714182183
0	1740	86.669634267061	0.039680714182183
0	1742	86.769634267061	0.039680714182183
0	1743	86.835388183	0.039680714182183
0	1744	86.869634267061	0.039680714182183
0	1746	86.969634267061	0.039680714182183
0	1748	87.069634267061	0.039680714182183
0	1750	87.169634267061	0.039680714182183
0	1752	87.269634267061	0.039680714182183
0	1754	87.369634267061	0.039680714182183
0	1756	87.469634267061	0.039680714182183
0	1758	87.569634267061	0.039680714182183
0	1759	87.624318166	0.039680714182183
0	1760	87.669634267061	0.039680714182183
0	1762	87.769634267061	0.039680714182183
0	1764	87.869634267061	0.039680714182183
0	1766	87.969634267061	0.039283907040361
0	1766	87.969634267061	0.039283907040361
0	1768	88.069634267061	0.039283907040361
0	1770	88.169634267061	0.039283907040361
0	1771	88.190993389	0.039283907040361
0	1772	88.269634267061	0.039283907040361
0	1774	88.369634267061	0.039283907040361
0	1776	88.469634267061	0.039283907040361
0	1778	88.569634267061	0.039283907040361
0	1780	88.669634267061	0.039283907040361
0	1781	88.747492258	0.039283907040361
0	1782	88.769634267061	0.039283907040361
0	1784	88.869634267061	0.039283907040361
0	1786	88.969634267061	0.039283907040361
0	1788	89.069634267061	0.039283907040361
0	1790	89.169634267061	0.039283907040361
0	1792	89.269634267061	0.039283907040361
0	1793	89.360195941	0.039283907040361
0	1794	89.369634267061	0.038891067969957
0	1794	89.369634267061	0.038891067969957
0	1796	89.469634267061	0.038891067969957
0	1798	89.569634267061	0.038891067969957
0	1800	89.669634267061	0.038891067969957
0	1802	89.769634267061	0.038891067969957
0	1804	89.869634267061	0.038891067969957
0	1805	89.96175535	0.038891067969957
0	1806	89.969634267061	0.038891067969957
0	1808	90.069634267061	0.038891067969957
0	1810	90.169634267061	0.038891067969957
0	1812	90.269634267061	0.038891067969957
0	1814	90.369634267061	0.038891067969957
0	1816	90.469634267061	0.038891067969957
0	1817	90.550795156	0.038891067969957
0	1818	90.569634267061	0.038891067969957
0	1820	90.669634267061	0.038891067969957
0	1822	90.769634267061	0.038891067969957
0	1824	90.869634267061	0.038502157290258
0	1824	90.869634267061	0.038502157290258
0	1826	90.969634267061	0.038502157290258
0	1828	91.069634267061	0.038502157290258
0	1829	91.123146565	0.038502157290258
0	1830	91.169634267061	0.038502157290258
0	1832	91.269634267061	0.038502157290258
0	1834	91.369634267061	0.038502157290258
0	1836	91.469634267061	0.038502157290258
0	1838	91.569634267061	0.038502157290258
0	1840	91.669634267061	0.038502157290258
0	1842	91.769634267061	0.038502157290258
0	1843	91.786119355	0.038502157290258
0	1844	91.869634267061	0.038502157290258
0	1846	91.969634267061	0.038502157290258
0	1848	92.069634267061	0.038502157290258
0	1850	92.169634267061	0.038502157290258
0	1852	92.269634267061	0.038502157290258
0	1853	92.332836991	0.038502157290258
0	1854	92.369634267061	0.038502157290258
0	1856	92.469634267061	0.038502157290258
0	1858	92.569634267061	0.038502157290258
0	1859	92.6212585	0.038502157290258
0	1860	92.669634267061	0.038502157290258
0	1862	92.769634267061	0.038502157290258
0	1864	92.869634267061	0.038502157290258
0	1866	92.969634267061	0.038502157290258
0	1868	93.069634267061	0.038502157290258
0	1869	93.140413414	0.038502157290258
0	1870	93.169634267061	0.038502157290258
0	1872	93.269634267061	0.038502157290258
0	1874	93.369634267061	0.038502157290258
0	1876	93.469634267061	0.038502157290258
0	1877	93.550829797	0.038502157290258
0	1878	93.569634267061	0.038502157290258
0	1880	93.669634267061	0.038117135717355
0	1880	93.669634267061	0.038117135717355
0	1882	93.769634267061	0.038117135717355
0	1884	93.869634267061	0.038117135717355
0	1886	93.969634267061	0.038117135717355
0	1887	94.057830169	0.038117135717355
0	1888	94.069634267061	0.038117135717355
0	1890	94.169634267061	0.038117135717355
0	1892	94.269634267061	0.038117135717355
0	1894	94.369634267061	0.038117135717355
0	1896	94.469634267061	0.038117135717355
0	1898	94.569634267061	0.038117135717355
0	1900	94.669634267061	0.038117135717355
0	1902	94.769634267061	0.038117135717355
0	1902	94.778595235	0.038117135717355
0	1904	94.869634267061	0.038117135717355
0	1906	94.969634267061	0.038117135717355
0	1908	95.069634267061	0.038117135717355
0	1910	95.169634267061	0.037735964360182
0	1910	95.169634267061	0.037735964360182
0	1912	95.269634267061	0.037735964360182
0	1914	95.369634267061	0.037735964360182
0	1916	95.469634267061	0.037735964360182
0	1916	95.480760829	0.037735964360182
0	1918	95.569634267061	0.037735964360182
0	1920	95.669634267061	0.037735964360182
0	1922	95.769634267061	0.037735964360182
0	1924	95.869634267061	0.037735964360182
0	1926	95.969634267061	0.037735964360182
0	1927	96.042863884	0.037735964360182
0	1928	96.069634267061	0.037735964360182
0	1930	96.169634267061	0.037735964360182
0	1932	96.269634267061	0.037735964360182
0	1934	96.369634267061	0.037735964360182
0	1936	96.469634267061	0.037735964360182
0	1936	96.483364309	0.037735964360182
0	1938	96.569634267061	0.03735860471658
0	1938	96.569634267061	0.03735860471658
0	1940	96.669634267061	0.03735860471658
0	1942	96.769634267061	0.03735860471658
0	1944	96.869634267061	0.03735860471658
0	1945	96.968410309	0.03735860471658
0	1946	96.969634267061	0.03735860471658
0	1948	97.069634267061	0.03735860471658
0	1950	97.169634267061	0.03735860471658
0	1952	97.269634267061	0.03735860471658
0	1954	97.369634267061	0.03735860471658
0	1955	97.437553048	0.03735860471658
0	1956	97.469634267061	0.03735860471658
0	1958	97.569634267061	0.03735860471658
0	1960	97.669634267061	0.03735860471658
0	1962	97.769634267061	0.03735860471658
0	1964	97.869634267061	0.03735860471658
0	1966	97.969634267061	0.03735860471658
0	1967	97.994851222	0.03735860471658
0	1968	98.069634267061	0.03735860471658
0	1970	98.169634267061	0.03735860471658
0	1972	98.269634267061	0.03735860471658
0	1974	98.369634267061	0.03735860471658
0	1976	98.469634267061	0.03735860471658
0	1978	98.569634267061	0.03735860471658
0	1979	98.628424126	0.03735860471658
0	1980	98.669634267061	0.03735860471658
0	1982	98.769634267061	0.03735860471658
0	1984	98.869634267061	0.03735860471658
0	1986	98.969634267061	0.03735860471658
0	1988	99.069634267061	0.03735860471658
0	1990	99.169634267061	0.03735860471658
0	1991	99.209716822	0.03735860471658
0	1992	99.269634267061	0.03735860471658
0	1994	99.369634267061	0.03735860471658
0	1996	99.469634267061	0.036985018669414
0	1996	99.469634267061	0.036985018669414
0	1998	99.569634267061	0.036985018669414
0	2000	99.669634267061	0.036985018669414
0	2001	99.707326522	0.036985018669414
0	2002	99.769634267061	0.036985018669414
0	2004	99.869634267061	0.036985018669414
0	2006	99.969634267061	0.036985018669414
0	2008	100.069634267061	0.036985018669414
0	2010	100.169634267061	0.036985018669414
0	2012	100.269634267061	0.036985018669414
0	2013	100.32571561	0.036985018669414
0	2014	100.369634267061	0.036985018669414
0	2016	100.469634267061	0.036985018669414
0	2018	100.569634267061	0.036985018669414
0	2020	100.669634267061	0.036985018669414
0	2022	100.769634267061	0.036985018669414
0	2024	100.869634267061	0.036985018669414
0	2025	100.913490031	0.036985018669414
0	2026	100.969634267061	0.036985018669414
0	2028	101.069634267061	0.036985018669414
0	2030	101.169634267061	0.036985018669414
0	2031	101.205261406	0.036985018669414
0	2032	101.269634267061	0.036985018669414
0	2034	101.369634267061	0.036985018669414
0	2036	101.469634267061	0.036985018669414
0	2038	101.569634267061	0.036985018669414
0	2040	101.669634267061	0.036985018669414
0	2041	101.689482271	0.036985018669414
0	2042	101.769634267061	0.036985018669414
0	2044	101.869634267061	0.036985018669414
0	2046	101.969634267061	0.036985018669414
0	2049	102.069634267061	0.036985018669414
0	2051	102.169634267061	0.036985018669414
0	2053	102.269634267061	0.036985018669414
0	2053	102.330356914	0.036985018669414
0	2055	102.369634267061	0.036985018669414
0	2057	102.469634267061	0.036985018669414
0	2059	102.569634267061	0.036985018669414
0	2061	102.669634267061	0.036985018669414
0	2063	102.769634267061	0.036985018669414
0	2065	102.869634267061	0.036985018669414
0	2065	102.882730795	0.036985018669414
0	2067	102.969634267061	0.036985018669414
0	2069	103.069634267061	0.036985018669414
0	2071	103.169634267061	0.036985018669414
0	2073	103.269634267061	0.036985018669414
0	2074	103.365207997	0.036985018669414
0	2075	103.369634267061	0.036985018669414
0	2077	103.469634267061	0.036985018669414
0	2079	103.569634267061	0.036985018669414
0	2079	103.642904656	0.036985018669414
0	2081	103.669634267061	0.036985018669414
0	2083	103.769634267061	0.036985018669414
0	2085	103.869634267061	0.036985018669414
0	2087	103.969634267061	0.036985018669414
0	2089	104.069634267061	0.036985018669414
0	2090	104.153180731	0.036985018669414
0	2091	104.169634267061	0.036985018669414
0	2093	104.269634267061	0.036985018669414
0	2095	104.369634267061	0.036985018669414
0	2097	104.469634267061	0.036985018669414
0	2099	104.569634267061	0.036985018669414
0	2099	104.621682547	0.036985018669414
0	2101	104.669634267061	0.036985018669414
0	2103	104.769634267061	0.036985018669414
0	2105	104.869634267061	0.036985018669414
0	2107	104.969634267061	0.036985018669414
0	2109	105.069634267061	0.036985018669414
0	2109	105.099789478	0.036985018669414
0	2111	105.169634267061	0.036985018669414
0	2113	105.269634267061	0.036985018669414
0	2115	105.369634267061	0.036985018669414
0	2117	105.469634267061	0.036985018669414
0	2118	105.55590895	0.036985018669414
0	2119	105.569634267061	0.036985018669414
0	2121	105.669634267061	0.036985018669414
0	2123	105.769634267061	0.036985018669414
0	2125	105.869634267061	0.036985018669414
0	2127	105.969634267061	0.036985018669414
0	2128	106.068294925	0.036985018669414
0	2129	106.069634267061	0.036985018669414
0	2131	106.169634267061	0.036985018669414
0	2133	106.269634267061	0.036985018669414
0	2135	106.369634267061	0.036985018669414
0	2136	106.464028612	0.03661516848272
0	2136	106.464028612	0.03661516848272
0	2137	106.469634267061	0.03661516848272
0	2139	106.569634267061	0.03661516848272
0	2141	106.669634267061	0.03661516848272
0	2143	106.769634267061	0.03661516848272
0	2145	106.869634267061	0.03661516848272
0	2145	106.92606844	0.03661516848272
0	2147	106.969634267061	0.03661516848272
0	2149	107.069634267061	0.03661516848272
0	2151	107.169634267061	0.03661516848272
0	2153	107.269634267061	0.03661516848272
0	2155	107.369634267061	0.03661516848272
0	2157	107.469634267061	0.03661516848272
0	2157	107.519898661	0.03661516848272
0	2159	107.569634267061	0.03661516848272
0	2161	107.669634267061	0.03661516848272
0	2163	107.769634267061	0.03661516848272
0	2165	107.869634267061	0.03661516848272
0	2167	107.969634267061	0.03661516848272
0	2169	108.069634267061	0.03661516848272
0	2170	108.165860722	0.03661516848272
0	2171	108.169634267061	0.03661516848272
0	2173	108.269634267061	0.03661516848272
0	2175	108.369634267061	0.03661516848272
0	2177	108.469634267061	0.03661516848272
0	2179	108.569634267061	0.03661516848272
0	2181	108.669634267061	0.03661516848272
0	2183	108.769634267061	0.03661516848272
0	2183	108.808939726	0.03661516848272
0	2185	108.869634267061	0.03661516848272
0	2187	108.969634267061	0.03661516848272
0	2189	109.069634267061	0.03661516848272
0	2191	109.169634267061	0.03661516848272
0	2193	109.269634267061	0.03661516848272
0	2195	109.369634267061	0.03661516848272
0	2197	109.469634267061	0.03661516848272
0	2197	109.483758865	0.03661516848272
0	2199	109.569634267061	0.03661516848272
0	2201	109.669634267061	0.03661516848272
0	2203	109.769634267061	0.03661516848272
0	2205	109.869634267061	0.03661516848272
0	2207	109.969634267061	0.03661516848272
0	2209	110.069634267061	0.03661516848272
0	2209	110.120344534	0.03661516848272
0	2211	110.169634267061	0.03661516848272
0	2213	110.269634267061	0.03661516848272
0	2215	110.369634267061	0.03661516848272
0	2217	110.469634267061	0.03661516848272
0	2219	110.569634267061	0.03661516848272
0	2221	110.669634267061	0.03661516848272
0	2221	110.692618279	0.03661516848272
0	2223	110.769634267061	0.03661516848272
0	2225	110.869634267061	0.03661516848272
0	2227	110.969634267061	0.03661516848272
0	2229	111.069634267061	0.03661516848272
0	2231	111.169634267061	0.03661516848272
0	2233	111.269634267061	0.03661516848272
0	2235	111.369634267061	0.03661516848272
0	2235	111.430557781	0.03661516848272
0	2237	111.469634267061	0.03661516848272
0	2239	111.569634267061	0.03661516848272
0	2241	111.669634267061	0.03661516848272
0	2243	111.769634267061	0.03661516848272
0	2245	111.869634267061	0.03661516848272
0	2247	111.969634267061	0.03661516848272
0	2247	112.043502997	0.03661516848272
0	2249	112.069634267061	0.03661516848272
0	2251	112.169634267061	0.03661516848272
0	2253	112.269634267061	0.03661516848272
0	2255	112.369634267061	0.03661516848272
0	2257	112.469634267061	0.03661516848272
0	2257	112.503620056	0.03661516848272
0	2259	112.569634267061	0.03661516848272
0	2261	112.669634267061	0.03661516848272
0	2263	112.769634267061	0.03661516848272
0	2264	112.8287599356	0.03661516848272
0	2265	112.905062818	0.03661516848272
0	2266	112.9287599356	0.03661516848272
0	2268	113.0287599356	0.03661516848272
0	2270	113.1287599356	0.03661516848272
0	2272	113.2287599356	0.03661516848272
0	2274	113.3287599356	0.03661516848272
0	2274	113.330823847	0.03661516848272
0	2276	113.4287599356	0.03661516848272
0	2278	113.5287599356	0.03661516848272
0	2280	113.6287599356	0.03661516848272
0	2282	113.7287599356	0.036249016797893
0	2282	113.7287599356	0.036249016797893
0	2283	113.812035295	0.036249016797893
0	2284	113.8287599356	0.036249016797893
0	2286	113.9287599356	0.036249016797893
0	2288	114.0287599356	0.036249016797893
0	2290	114.1287599356	0.036249016797893
0	2292	114.2287599356	0.036249016797893
0	2292	114.232415995	0.036249016797893
0	2294	114.3287599356	0.036249016797893
0	2296	114.4287599356	0.036249016797893
0	2298	114.5287599356	0.036249016797893
0	2300	114.6287599356	0.036249016797893
0	2301	114.684849607	0.036249016797893
0	2302	114.7287599356	0.036249016797893
0	2304	114.8287599356	0.036249016797893
0	2306	114.9287599356	0.036249016797893
0	2308	115.0287599356	0.036249016797893
0	2310	115.1287599356	0.035886526629914
0	2310	115.1287599356	0.035886526629914
0	2311	115.152212542	0.035886526629914
0	2312	115.2287599356	0.035886526629914
0	2314	115.3287599356	0.035886526629914
0	2315	115.397945953	0.035886526629914
0	2316	115.4287599356	0.035886526629914
0	2318	115.5287599356	0.035886526629914
0	2320	115.6287599356	0.035886526629914
0	2322	115.7287599356	0.035886526629914
0	2324	115.8287599356	0.035886526629914
0	2325	115.87344334	0.035886526629914
0	2326	115.9287599356	0.035886526629914
0	2328	116.0287599356	0.035886526629914
0	2330	116.1287599356	0.035886526629914
0	2331	116.15351752	0.035886526629914
0	2332	116.2287599356	0.035886526629914
0	2334	116.3287599356	0.035886526629914
0	2336	116.4287599356	0.035527661363615
0	2336	116.4287599356	0.035527661363615
0	2338	116.5287599356	0.035527661363615
0	2339	116.563516027	0.035527661363615
0	2340	116.6287599356	0.035527661363615
0	2342	116.7287599356	0.035527661363615
0	2344	116.8287599356	0.035527661363615
0	2346	116.9287599356	0.035527661363615
0	2347	116.999818234	0.035527661363615
0	2348	117.0287599356	0.035527661363615
0	2350	117.1287599356	0.035527661363615
0	2352	117.2287599356	0.035527661363615
0	2354	117.3287599356	0.035527661363615
0	2356	117.4287599356	0.035527661363615
0	2356	117.444737326	0.035527661363615
0	2358	117.5287599356	0.035527661363615
0	2360	117.6287599356	0.035527661363615
0	2361	117.708042709	0.035527661363615
0	2362	117.7287599356	0.035172384749978
0	2362	117.7287599356	0.035172384749978
0	2364	117.8287599356	0.035172384749978
0	2366	117.9287599356	0.035172384749978
0	2367	117.935837015569	0.035172384749978
0	2369	118.035837015569	0.035172384749978
0	2370	118.128285052	0.035172384749978
0	2371	118.135837015569	0.035172384749978
0	2373	118.235837015569	0.035172384749978
0	2375	118.335837015569	0.035172384749978
0	2376	118.407878257	0.035172384749978
0	2377	118.435837015569	0.035172384749978
0	2379	118.535837015569	0.035172384749978
0	2381	118.635837015569	0.035172384749978
0	2383	118.735837015569	0.035172384749978
0	2385	118.835837015569	0.035172384749978
0	2386	118.912591837	0.035172384749978
0	2387	118.935837015569	0.035172384749978
0	2389	119.035837015569	0.035172384749978
0	2391	119.135837015569	0.035172384749978
0	2393	119.235837015569	0.035172384749978
0	2395	119.335837015569	0.035172384749978
0	2397	119.435837015569	0.035172384749978
0	2399	119.535837015569	0.035172384749978
0	2400	119.553805987	0.035172384749978
0	2401	119.635837015569	0.035172384749978
0	2403	119.735837015569	0.035172384749978
0	2405	119.835837015569	0.035172384749978
0	2407	119.935837015569	0.035172384749978
0	2409	120.035837015569	0.035172384749978
0	2410	120.135108661	0.035172384749978
0	2411	120.135837015569	0.035172384749978
0	2413	120.235837015569	0.035172384749978
0	2415	120.335837015569	0.035172384749978
0	2417	120.435837015569	0.035172384749978
0	2419	120.535837015569	0.035172384749978
0	2421	120.635837015569	0.035172384749978
0	2423	120.735837015569	0.035172384749978
0	2424	120.82180603	0.035172384749978
0	2425	120.835837015569	0.035172384749978
0	2427	120.935837015569	0.035172384749978
0	2429	121.035837015569	0.035172384749978
0	2431	121.135837015569	0.035172384749978
0	2433	121.235837015569	0.035172384749978
0	2435	121.335837015569	0.035172384749978
0	2437	121.435837015569	0.035172384749978
0	2437	121.446992872	0.035172384749978
0	2439	121.535837015569	0.035172384749978
0	2441	121.635837015569	0.035172384749978
0	2443	121.735837015569	0.035172384749978
0	2445	121.835837015569	0.035172384749978
0	2446	121.86087637	0.035172384749978
0	2447	121.935837015569	0.035172384749978
0	2449	122.035837015569	0.035172384749978
0	2451	122.135837015569	0.035172384749978
0	2453	122.235837015569	0.035172384749978
0	2455	122.335837015569	0.035172384749978
0	2456	122.356323313	0.035172384749978
0	2457	122.435837015569	0.035172384749978
0	2459	122.535837015569	0.035172384749978
0	2461	122.635837015569	0.035172384749978
0	2463	122.735837015569	0.035172384749978
0	2465	122.835837015569	0.035172384749978
0	2466	122.889203167	0.035172384749978
0	2467	122.935837015569	0.035172384749978
0	2469	123.035837015569	0.035172384749978
0	2471	123.135837015569	0.035172384749978
0	2473	123.235837015569	0.035172384749978
0	2475	123.335837015569	0.035172384749978
0	2476	123.379030519	0.034820660902479
0	2476	123.379030519	0.034820660902479
0	2477	123.435837015569	0.034820660902479
0	2479	123.535837015569	0.034820660902479
0	2481	123.635837015569	0.034820660902479
0	2481	123.648655753	0.034820660902479
0	2483	123.735837015569	0.034820660902479
0	2485	123.835837015569	0.034820660902479
0	2487	123.935837015569	0.034820660902479
0	2489	124.035837015569	0.034820660902479
0	2490	124.117165249	0.034820660902479
0	2491	124.135837015569	0.034820660902479
0	2493	124.235837015569	0.034820660902479
0	2495	124.335837015569	0.034820660902479
0	2497	124.435837015569	0.034820660902479
0	2498	124.527620653	0.034820660902479
0	2499	124.535837015569	0.034820660902479
0	2501	124.635837015569	0.034820660902479
0	2503	124.735837015569	0.034820660902479
0	2505	124.835837015569	0.034820660902479
0	2507	124.935837015569	0.034820660902479
0	2509	125.035837015569	0.034820660902479
0	2510	125.106784558	0.034820660902479
0	2511	125.135837015569	0.034820660902479
0	2513	125.235837015569	0.034820660902479
0	2515	125.335837015569	0.034820660902479
0	2517	125.435837015569	0.034820660902479
0	2519	125.535837015569	0.034820660902479
0	2520	125.62881052	0.034820660902479
0	2521	125.635837015569	0.034820660902479
0	2523	125.735837015569	0.034820660902479
0	2525	125.835837015569	0.034820660902479
0	2526	125.893192273	0.034820660902479
0	2527	125.935837015569	0.034820660902479
0	2529	126.035837015569	0.034820660902479
0	2531	126.135837015569	0.034820660902479
0	2533	126.235837015569	0.034820660902479
0	2535	126.335837015569	0.034820660902479
0	2536	126.432971641	0.034820660902479
0	2537	126.435837015569	0.034820660902479
0	2539	126.535837015569	0.034820660902479
0	2541	126.635837015569	0.034820660902479
0	2543	126.735837015569	0.034820660902479
0	2545	126.835837015569	0.034820660902479
0	2547	126.935837015569	0.034820660902479
0	2548	126.979255963	0.034820660902479
0	2549	127.015404545038	0.034820660902479
0	2551	127.115404545038	0.034820660902479
0	2553	127.215404545038	0.034820660902479
0	2553	127.246511356	0.034820660902479
0	2555	127.315404545038	0.034820660902479
0	2557	127.415404545038	0.034820660902479
0	2559	127.515404545038	0.034820660902479
0	2561	127.615404545038	0.034820660902479
0	2562	127.707635491	0.034820660902479
0	2563	127.715404545038	0.034820660902479
0	2565	127.815404545038	0.034820660902479
0	2567	127.915404545038	0.034820660902479
0	2569	128.015404545038	0.034820660902479
0	2571	128.115404545038	0.034820660902479
0	2572	128.127041434	0.034820660902479
0	2573	128.215404545038	0.034820660902479
0	2575	128.315404545038	0.034820660902479
0	2577	128.415404545038	0.034820660902479
0	2579	128.515404545038	0.034820660902479
0	2581	128.615404545038	0.034820660902479
0	2582	128.652513649	0.034820660902479
0	2583	128.715404545038	0.034820660902479
0	2585	128.815404545038	0.034820660902479
0	2587	128.915404545038	0.034820660902479
0	2589	129.015404545038	0.034820660902479
0	2590	129.033604537	0.034820660902479
0	2591	129.115404545038	0.034820660902479
0	2593	129.215404545038	0.034820660902479
0	2594	129.300788773	0.034820660902479
0	2595	129.315404545038	0.034820660902479
0	2597	129.415404545038	0.034820660902479
0	2599	129.515404545038	0.034820660902479
0	2600	129.598477297	0.034820660902479
0	2601	129.615404545038	0.034820660902479
0	2603	129.715404545038	0.034820660902479
0	2605	129.815404545038	0.034820660902479
0	2607	129.915404545038	0.034820660902479
0	2609	130.015404545038	0.034820660902479
0	2610	130.085844757	0.034820660902479
0	2611	130.115404545038	0.034820660902479
0	2613	130.215404545038	0.034820660902479
0	2615	130.315404545038	0.034820660902479
0	2617	130.415404545038	0.034820660902479
0	2619	130.515404545038	0.034820660902479
0	2620	130.540858891	0.034820660902479
0	2621	130.615404545038	0.034820660902479
0	2623	130.715404545038	0.034820660902479
0	2625	130.815404545038	0.034820660902479
0	2627	130.915404545038	0.034820660902479
0	2629	131.015404545038	0.034820660902479
0	2631	131.115404545038	0.034820660902479
0	2632	131.150107159	0.034820660902479
0	2633	131.215404545038	0.034820660902479
0	2635	131.315404545038	0.034820660902479
0	2637	131.415404545038	0.034820660902479
0	2639	131.515404545038	0.034820660902479
0	2641	131.615404545038	0.034820660902479
0	2643	131.715404545038	0.034820660902479
0	2644	131.766108466	0.034820660902479
0	2645	131.815404545038	0.034820660902479
0	2647	131.915404545038	0.034820660902479
0	2649	132.015404545038	0.034820660902479
0	2651	132.115404545038	0.034820660902479
0	2653	132.215404545038	0.034820660902479
0	2655	132.315404545038	0.034820660902479
0	2656	132.353923576	0.034820660902479
0	2657	132.415404545038	0.034820660902479
0	2659	132.515404545038	0.034820660902479
0	2661	132.609408313961	0.034820660902479
0	2662	132.648225997	0.034820660902479
0	2663	132.709408313961	0.034820660902479
0	2665	132.809408313961	0.034820660902479
0	2667	132.909408313961	0.034820660902479
0	2669	133.009408313961	0.034820660902479
0	2671	133.109408313961	0.034820660902479
0	2672	133.144703173	0.034820660902479
0	2673	133.209408313961	0.034820660902479
0	2675	133.309408313961	0.034820660902479
0	2677	133.409408313961	0.034820660902479
0	2678	133.43527201	0.034820660902479
0	2679	133.509408313961	0.034820660902479
0	2681	133.609408313961	0.034820660902479
0	2683	133.709408313961	0.034820660902479
0	2685	133.809408313961	0.034820660902479
0	2686	133.839419683	0.034820660902479
0	2687	133.909408313961	0.034820660902479
0	2689	134.009408313961	0.034820660902479
0	2691	134.109408313961	0.034820660902479
0	2693	134.209408313961	0.034820660902479
0	2694	134.297221525	0.034820660902479
0	2695	134.309408313961	0.034820660902479
0	2697	134.409408313961	0.034820660902479
0	2699	134.509408313961	0.034820660902479
0	2701	134.609408313961	0.034820660902479
0	2703	134.709408313961	0.034820660902479
0	2705	134.809408313961	0.034820660902479
0	2708	134.909408313961	0.034820660902479
0	2708	134.91002509	0.034820660902479
0	2711	135.009408313961	0.034820660902479
0	2714	135.109408313961	0.034820660902479
0	2717	135.209408313961	0.034820660902479
0	2720	135.309408313961	0.034820660902479
0	2721	135.368591542	0.034820660902479
0	2722	135.409408313961	0.034820660902479
0	2725	135.509408313961	0.034820660902479
0	2728	135.609408313961	0.034472454293454
0	2728	135.609408313961	0.034472454293454
0	2731	135.709408313961	0.034472454293454
0	2734	135.809408313961	0.034472454293454
0	2736	135.909408313961	0.034472454293454
0	2739	136.009408313961	0.034472454293454
0	2740	136.025057188	0.034472454293454
0	2742	136.109408313961	0.034472454293454
0	2745	136.209408313961	0.034472454293454
0	2748	136.309408313961	0.034472454293454
0	2748	136.320046735	0.034472454293454
0	2750	136.409408313961	0.034472454293454
0	2753	136.509408313961	0.034472454293454
0	2755	136.57481794	0.034472454293454
0	2756	136.609408313961	0.034127729750519
0	2756	136.609408313961	0.034127729750519
0	2759	136.709408313961	0.034127729750519
0	2762	136.809408313961	0.034127729750519
0	2764	136.909408313961	0.034127729750519
0	2767	137.009408313961	0.034127729750519
0	2768	137.032313524	0.034127729750519
0	2770	137.109408313961	0.034127729750519
0	2773	137.209408313961	0.034127729750519
0	2776	137.309408313961	0.034127729750519
0	2777	137.323207474	0.034127729750519
0	2778	137.409408313961	0.034127729750519
0	2781	137.509408313961	0.034127729750519
0	2784	137.609408313961	0.034127729750519
0	2787	137.709408313961	0.034127729750519
0	2788	137.762386015	0.034127729750519
0	2790	137.809408313961	0.034127729750519
0	2792	137.909408313961	0.034127729750519
0	2795	138.009408313961	0.034127729750519
0	2797	138.109408313961	0.034127729750519
0	2798	138.170798995	0.034127729750519
0	2799	138.209408313961	0.034127729750519
0	2801	138.309408313961	0.034127729750519
0	2803	138.409408313961	0.034127729750519
0	2805	138.509408313961	0.034127729750519
0	2807	138.609408313961	0.034127729750519
0	2809	138.709408313961	0.034127729750519
0	2810	138.750112144	0.034127729750519
0	2811	138.809408313961	0.034127729750519
0	2813	138.909408313961	0.034127729750519
0	2815	139.009408313961	0.034127729750519
0	2817	139.109408313961	0.034127729750519
0	2818	139.128225742	0.034127729750519
0	2819	139.209408313961	0.034127729750519
0	2821	139.309408313961	0.034127729750519
0	2823	139.409408313961	0.034127729750519
0	2825	139.509408313961	0.034127729750519
0	2826	139.565770759	0.034127729750519
0	2827	139.609408313961	0.034127729750519
0	2829	139.67592060409	0.034127729750519
0	2831	139.77592060409	0.034127729750519
0	2833	139.87592060409	0.034127729750519
0	2834	139.959592177	0.034127729750519
0	2835	139.97592060409	0.034127729750519
0	2837	140.07592060409	0.034127729750519
0	2839	140.17592060409	0.034127729750519
0	2841	140.27592060409	0.034127729750519
0	2843	140.37592060409	0.034127729750519
0	2843	140.403579577	0.034127729750519
0	2845	140.47592060409	0.034127729750519
0	2847	140.57592060409	0.034127729750519
0	2849	140.67592060409	0.034127729750519
0	2849	140.678970391	0.034127729750519
0	2851	140.77592060409	0.034127729750519
0	2853	140.87592060409	0.034127729750519
0	2855	140.97592060409	0.034127729750519
0	2857	141.07592060409	0.034127729750519
0	2859	141.17592060409	0.034127729750519
0	2859	141.18922675	0.034127729750519
0	2861	141.27592060409	0.034127729750519
0	2863	141.37592060409	0.034127729750519
0	2865	141.47592060409	0.034127729750519
0	2867	141.57592060409	0.034127729750519
0	2867	141.582723445	0.034127729750519
0	2869	141.67592060409	0.034127729750519
0	2871	141.77592060409	0.034127729750519
0	2873	141.87592060409	0.034127729750519
0	2875	141.97592060409	0.034127729750519
0	2875	142.003083796	0.034127729750519
0	2877	142.07592060409	0.034127729750519
0	2879	142.17592060409	0.034127729750519
0	2881	142.27592060409	0.034127729750519
0	2883	142.37592060409	0.034127729750519
0	2884	142.47554722	0.034127729750519
0	2885	142.47592060409	0.034127729750519
0	2887	142.57592060409	0.034127729750519
0	2889	142.67592060409	0.034127729750519
0	2891	142.77592060409	0.034127729750519
0	2893	142.87592060409	0.034127729750519
0	2893	142.911719761	0.034127729750519
0	2895	142.97592060409	0.034127729750519
0	2897	143.07592060409	0.034127729750519
0	2899	143.17592060409	0.034127729750519
0	2901	143.27592060409	0.034127729750519
0	2902	143.338733608	0.034127729750519
0	2903	143.37592060409	0.034127729750519
0	2905	143.47592060409	0.034127729750519
0	2907	143.57592060409	0.034127729750519
0	2909	143.67592060409	0.034127729750519
0	2911	143.77592060409	0.034127729750519
0	2912	143.844006388	0.034127729750519
0	2913	143.87592060409	0.034127729750519
0	2915	143.97592060409	0.034127729750519
0	2917	144.07592060409	0.034127729750519
0	2918	144.142972573	0.034127729750519
0	2919	144.17229317047	0.034127729750519
0	2920	144.17592060409	0.034142239484999
0	2922	144.26536073284	0.0345
0	2923	144.27592060409	0.034542239485
0	2925	144.37592060409	0.034942239485
0	2926	144.39036073284	0.035
0	2928	144.47592060409	0.035342239485
0	2929	144.51536073284	0.0355
0	2931	144.57592060409	0.035742239485
0	2933	144.64036073284	0.036
0	2933	144.653944153	0.03605433368064
0	2934	144.67592060409	0.036142239485
0	2936	144.737949309327	0.036390354305948
0	2937	144.76536073284	0.0365
0	2939	144.837949309327	0.036790354305948
0	2940	144.89036073284	0.037
0	2942	144.937949309327	0.037190354305948
0	2943	145.01536073284	0.0375
0	2945	145.037949309327	0.037590354305948
0	2945	145.07685517	0.03774597774864
0	2947	145.137949309327	0.037990354305948
0	2948	145.14036073284	0.038
0	2950	145.237949309327	0.038390354305948
0	2951	145.26536073284	0.0385
0	2953	145.337949309327	0.038790354305948
0	2954	145.39036073284	0.03861
0	2954	145.39036073284	0.03861
0	2956	145.437949309327	0.038800354305948
0	2957	145.48786073284	0.039
0	2959	145.537949309327	0.039200354305948
0	2960	145.61286073284	0.0395
0	2961	145.625585602	0.03955089947664
0	2962	145.637949309327	0.039600354305948
0	2964	145.73786073284	0.04
0	2965	145.737949309327	0.040000354305948
0	2967	145.837949309327	0.040400354305948
0	2968	145.86286073284	0.0405
0	2970	145.937949309327	0.040800354305948
0	2971	145.98786073284	0.041
0	2973	146.037949309327	0.041200354305948
0	2974	146.11286073284	0.0415
0	2976	146.137949309327	0.041600354305948
0	2977	146.222674021	0.04193925315264
0	2978	146.23786073284	0.042
0	2979	146.237949309327	0.042000354305948
0	2981	146.337949309327	0.042400354305948
0	2982	146.36286073284	0.0425
0	2984	146.437949309327	0.042372350762889
0	2984	146.437949309327	0.042372350762889
0	2985	146.48786073284	0.043
0	2987	146.537949309327	0.043200354305948
0	2988	146.61286073284	0.0435
0	2990	146.637949309327	0.043600354305948
0	2990	146.702933005	0.04386028908864
0	2992	146.73786073284	0.044
0	2993	146.737949309327	0.044000354305948
0	2995	146.837949309327	0.044400354305948
0	2996	146.86286073284	0.0445
0	2998	146.937949309327	0.044800354305948
0	2999	146.98786073284	0.045
0	3001	147.037949309327	0.045200354305948
0	3002	147.11286073284	0.0455
0	3003	147.134565493	0.04558681904064
0	3004	147.137949309327	0.045600354305948
0	3006	147.23786073284	0.046
0	3007	147.237949309327	0.046000354305948
0	3009	147.337949309327	0.046400354305948
0	3010	147.36286073284	0.0465
0	3010	147.414550207	0.04670675789664
0	3012	147.437949309327	0.046332350762889
0	3012	147.437949309327	0.046332350762889
0	3013	147.48786073284	0.047
0	3015	147.537949309327	0.047200354305948
0	3016	147.61286073284	0.0475
0	3018	147.637949309327	0.047600354305948
0	3020	147.73786073284	0.048
0	3021	147.737949309327	0.048000354305948
0	3023	147.837949309327	0.048400354305948
0	3023	147.846547165	0.04843474572864
0	3024	147.86286073284	0.0485
0	3026	147.937949309327	0.048800354305948
0	3027	147.98786073284	0.049
0	3029	148.037949309327	0.049200354305948
0	3030	148.11286073284	0.0495
0	3032	148.137949309327	0.049600354305948
0	3034	148.23786073284	0.05
0	3035	148.237949309327	0.05
0	3037	148.337949309327	0.05
0	3037	148.405420324	0.05
0	3039	148.437949309327	0.05
0	3041	148.537949309327	0.05
0	3043	148.637949309327	0.05
0	3045	148.737949309327	0.05
0	3047	148.837949309327	0.05
0	3047	148.885437955	0.05
0	3049	148.937949309327	0.05
0	3051	149.037949309327	0.05
0	3053	149.137949309327	0.05
0	3055	149.237949309327	0.05
0	3057	149.337949309327	0.05
0	3059	149.437949309327	0.05
0	3059	149.482174156	0.05
0	3061	149.537949309327	0.05
0	3063	149.637949309327	0.05
0	3065	149.737949309327	0.05
0	3067	149.837949309327	0.05
0	3069	149.937949309327	0.05
0	3071	150.037949309327	0.05
0	3073	150.137949309327	0.05
0	3075	150.237949309327	0.05
0	3075	150.240938179	0.05
0	3077	150.337949309327	0.05
0	3079	150.437949309327	0.05
0	3081	150.537949309327	0.05
0	3083	150.637949309327	0.05
0	3083	150.701788723	0.05
0	3085	150.737949309327	0.05
0	3087	150.837949309327	0.05
0	3089	150.937949309327	0.05
0	3091	151.037949309327	0.05
0	3093	151.137949309327	0.05
0	3095	151.237949309327	0.05
0	3095	151.276595677	0.05
0	3097	151.337949309327	0.05
0	3099	151.437949309327	0.05
0	3101	151.537949309327	0.05
0	3103	151.637949309327	0.05
0	3105	151.737949309327	0.05
0	3105	151.775173372	0.05
0	3107	151.837949309327	0.05
0	3109	151.937949309327	0.05
0	3111	152.037949309327	0.05
0	3113	152.137949309327	0.05
0	3115	152.237949309327	0.05
0	3115	152.268608524	0.05
0	3117	152.337949309327	0.05
0	3119	152.437949309327	0.05
0	3121	152.537949309327	0.05
0	3123	152.637949309327	0.05
0	3125	152.737949309327	0.05
0	3125	152.75987158	0.05
0	3127	152.837949309327	0.05
0	3129	152.937949309327	0.05
0	3130	153.031460608	0.05
0	3131	153.037949309327	0.05
0	3133	153.137949309327	0.05
0	3135	153.237949309327	0.05
0	3137	153.337949309327	0.05
0	3139	153.437949309327	0.05
0	3141	153.537949309327	0.05
0	3141	153.545426812	0.05
0	3143	153.637949309327	0.05
0	3145	153.737949309327	0.05
0	3147	153.837949309327	0.05
0	3149	153.937949309327	0.05
0	3150	154.023738412	0.05
0	3151	154.037949309327	0.05
0	3153	154.137949309327	0.05
0	3155	154.237949309327	0.05
0	3157	154.337949309327	0.05
0	3159	154.437949309327	0.05
0	3161	154.537949309327	0.05
0	3162	154.635758362	0.05
0	3163	154.637949309327	0.05
0	3165	154.737949309327	0.05
0	3167	154.837949309327	0.05
0	3169	154.937949309327	0.05
0	3171	155.037949309327	0.05
0	3173	155.137949309327	0.05
0	3175	155.237949309327	0.05
0	3177	155.337949309327	0.05
0	3177	155.360561524	0.05
0	3179	155.437949309327	0.05
0	3181	155.537949309327	0.05
0	3183	155.637949309327	0.05
0	3185	155.737949309327	0.05
0	3185	155.7922348	0.05
0	3187	155.837949309327	0.05
0	3189	155.937949309327	0.05
0	3191	156.037949309327	0.05
0	3193	156.137949309327	0.05
0	3193	156.214084273	0.05
0	3195	156.237949309327	0.05
0	3197	156.337949309327	0.05
0	3199	156.437949309327	0.05
0	3201	156.537949309327	0.05
0	3201	156.620037568	0.05
0	3203	156.637949309327	0.05
0	3205	156.737949309327	0.05
0	3207	156.837949309327	0.05
0	3209	156.937949309327	0.05
0	3211	157.037949309327	0.05
0	3211	157.040879233	0.05
0	3213	157.137949309327	0.05
0	3215	157.237949309327	0.05
0	3217	157.337949309327	0.05
0	3219	157.437949309327	0.05
0	3219	157.477635289	0.05
0	3221	157.537949309327	0.05
0	3223	157.637949309327	0.05
0	3225	157.737949309327	0.05
0	3225	157.752209335	0.05
0	3227	157.837949309327	0.05
0	3229	157.937949309327	0.05
0	3230	158.026998718	0.05
0	3231	158.037949309327	0.05
0	3233	158.137949309327	0.05
0	3235	158.237949309327	0.05
0	3237	158.337949309327	0.05
0	3239	158.437949309327	0.05
0	3239	158.49677251	0.05
0	3241	158.537949309327	0.05
0	3243	158.637949309327	0.05
0	3245	158.737949309327	0.05
0	3247	158.837949309327	0.05
0	3248	158.923804009	0.05
0	3249	158.937949309327	0.05
0	3251	159.037949309327	0.05
0	3253	159.137949309327	0.05
0	3253	159.218362384	0.05
0	3255	159.237949309327	0.05
0	3257	159.337949309327	0.05
0	3259	159.437949309327	0.05
0	3261	159.537949309327	0.05
0	3262	159.632921107	0.05
0	3263	159.637949309327	0.05
0	3265	159.737949309327	0.05
0	3267	159.837949309327	0.05
0	3269	159.937949309327	0.05
0	3270	160.027769302	0.05
0	3271	160.037949309327	0.05
0	3273	160.137949309327	0.05
0	3275	160.237949309327	0.05
0	3275	160.295660923	0.05
0	3277	160.337949309327	0.05
0	3279	160.437949309327	0.05
0	3281	160.537949309327	0.05
0	3283	160.637949309327	0.05
0	3283	160.696910089	0.05
0	3285	160.737949309327	0.05
0	3287	160.837949309327	0.05
0	3289	160.937949309327	0.05
0	3291	161.037949309327	0.05
0	3293	161.137949309327	0.05
0	3294	161.196076615	0.05
0	3295	161.237949309327	0.05
0	3297	161.337949309327	0.05
0	3299	161.437949309327	0.05
0	3301	161.537949309327	0.05
0	3303	161.637949309327	0.05
0	3304	161.723475022	0.05
0	3305	161.737949309327	0.05
0	3307	161.837949309327	0.05
0	3309	161.937949309327	0.05
0	3311	162.037949309327	0.05
0	3313	162.137949309327	0.05
0	3315	162.237949309327	0.05
0	3316	162.30131014	0.05
0	3317	162.337949309327	0.05
0	3319	162.437949309327	0.05
0	3321	162.537949309327	0.05
0	3323	162.637949309327	0.05
0	3325	162.737949309327	0.05
0	3327	162.837949309327	0.05
0	3328	162.888188779	0.05
0	3329	162.937949309327	0.05
0	3331	163.037949309327	0.05
0	3333	163.137949309327	0.05
0	3335	163.237949309327	0.05
0	3335	163.271702113	0.05
0	3337	163.337949309327	0.05
0	3339	163.437949309327	0.05
0	3341	163.537949309327	0.05
0	3343	163.637949309327	0.05
0	3344	163.707748996	0.05
0	3345	163.737949309327	0.05
0	3347	163.837949309327	0.05
0	3349	163.937949309327	0.05
0	3350	163.992744946	0.05
0	3351	164.037949309327	0.05
0	3353	164.137949309327	0.05
0	3355	164.237949309327	0.05
0	3357	164.337949309327	0.05
0	3358	164.404338682	0.05
0	3359	164.437949309327	0.05
0	3361	164.537949309327	0.05
0	3363	164.637949309327	0.05
0	3365	164.737949309327	0.05
0	3365	164.76473338	0.05
0	3367	164.837949309327	0.05
0	3369	164.937949309327	0.05
0	3371	165.037949309327	0.05
0	3373	165.137949309327	0.05
0	3375	165.237949309327	0.05
0	3376	165.329552866	0.0495
0	3376	165.329552866	0.0495
0	3376	165.337949309327	0.049533585773308
1	0	0	0.004
1	461	23.08057828677	0
1	534	26.633716071587	0.004
1	944	46.956175101225	0
1	2919	144.17229317047	0.004
2	0	0	0.05
2	0	0.1	0.05
2	2	0.1847401	0.05
2	4	0.2	0.05
2	6	0.3	0.05
2	8	0.4	0.05
2	10	0.5	0.05
2	12	0.6	0.05
2	14	0.7	0.05
2	16	0.8	0.05
2	18	0.9	0.05
2	20	1	0.05
2	20	1.018307488	0.05
2	22	1.1	0.05
2	24	1.2	0.05
2	26	1.3	0.05
2	28	1.4	0.0495
2	28	1.4	0.0495
2	30	1.5	0.0499
2	32	1.6	0.05
2	32	1.627864174	0.05
2	34	1.7	0.05
2	36	1.8	0.05
2	36	1.825077058	0.05
2	38	1.9	0.05
2	40	2	0.05
2	40	2.079490969	0.05
2	42	2.1	0.05
2	44	2.2	0.05
2	46	2.3	0.05
2	46	2.343933193	0.05
2	48	2.4	0.05
2	50	2.5	0.05
2	52	2.6	0.05
2	54	2.7	0.0495
2	54	2.7	0.0495
2	56	2.8	0.0499
2	56	2.82738568	0.05
2	58	2.9	0.05
2	60	3	0.05
2	62	3.1	0.05
2	64	3.2	0.05
2	64	3.264093928	0.05
2	66	3.3	0.05
2	68	3.4	0.05
2	70	3.5	0.05
2	70	3.513167434	0.05
2	72	3.6	0.05
2	74	3.7	0.05
2	76	3.8	0.05
2	78	3.9	0.05
2	80	4	0.05
2	80	4.024783045	0.05
2	82	4.1	0.05
2	84	4.2	0.05
2	86	4.3	0.05
2	86	4.31977147	0.05
2	88	4.4	0.05
2	90	4.5	0.05
2	90	4.559993053	0.05
2	92	4.6	0.05
2	94	4.7	0.05
2	96	4.8	0.05
2	98	4.9	0.05
2	100	5	0.05
2	100	5.017861318	0.05
2	102	5.1	0.05
2	104	5.2	0.05
2	106	5.3	0.05
2	108	5.4	0.0495
2	108	5.4	0.0495
2	108	5.458226929	0.049732907716
2	110	5.5	0.0499
2	112	5.6	0.05
2	114	5.7	0.05
2	116	5.8	0.05
2	118	5.9	0.05
2	118	5.943613507	0.05
2	120	6	0.05
2	122	6.1	0.05
2	124	6.2	0.05
2	126	6.3	0.05
2	128	6.4	0.05
2	128	6.420767002	0.05
2	130	6.5	0.05
2	132	6.6	0.05
2	134	6.7	0.05
2	136	6.8	0.0495
2	136	6.8	0.0495
2	138	6.9	0.0499
2	138	6.91881415	0.0499752566
2	140	7	0.05
2	142	7.1	0.05
2	144	7.2	0.05
2	144	7.2182119	0.05
2	146	7.3	0.05
2	148	7.4	0.05
2	150	7.5	0.05
2	152	7.6	0.05
2	152	7.633473457	0.05
2	154	7.7	0.05
2	156	7.8	0.05
2	158	7.9	0.05
2	160	8	0.05
2	162	8.1	0.05
2	162	8.103923671	0.05
2	164	8.2	0.05
2	166	8.3	0.05
2	166	8.372484994	0.05
2	168	8.4	0.05
2	170	8.5	0.05
2	172	8.6	0.05
2	174	8.7	0.05
2	176	8.8	0.05
2	176	8.813471995	0.05
2	178	8.9	0.05
2	180	9	0.05
2	182	9.1	0.05
2	184	9.2	0.05
2	186	9.3	0.05
2	186	9.384116326	0.05
2	188	9.4	0.05
2	190	9.5	0.0495
2	190	9.5	0.0495
2	192	9.6	0.0499
2	194	9.7	0.05
2	196	9.8	0.05
2	198	9.9	0.05
2	200	10	0.05
2	200	10.079046127	0.05
2	202	10.1	0.05
2	204	10.2	0.05
2	206	10.3	0.05
2	208	10.4	0.05
2	210	10.5	0.05
2	210	10.587569029	0.05
2	212	10.6	0.05
2	214	10.7	0.05
2	216	10.8	0.05
2	218	10.9	0.05
2	220	11	0.0495
2	220	11	0.0495
2	222	11.1	0.0499
2	222	11.156706757	0.05
2	224	11.2	0.05
2	226	11.3	0.05
2	228	11.4	0.05
2	230	11.5	0.05
2	232	11.6	0.05
2	232	11.693472745	0.05
2	234	11.7	0.05
2	236	11.8	0.05
2	238	11.9	0.05
2	238	11.972142727	0.05
2	240	12	0.05
2	242	12.1	0.05
2	244	12.2	0.05
2	244	12.262941694	0.05
2	246	12.3	0.0495
2	246	12.3	0.0495
2	248	12.4	0.0499
2	250	12.5	0.05
2	252	12.6	0.05
2	254	12.7	0.05
2	254	12.741806689	0.05
2	256	12.8	0.05
2	258	12.9	0.05
2	260	13	0.05
2	262	13.1	0.05
2	264	13.2	0.05
2	264	13.207839043	0.05
2	266	13.3	0.05
2	268	13.4	0.05
2	268	13.478729185	0.05
2	270	13.5	0.05
2	272	13.6	0.05
2	274	13.7	0.0495
2	274	13.7	0.0495
2	276	13.8	0.0499
2	278	13.9	0.05
2	278	13.927157539	0.05
2	280	14	0.05
2	282	14.1	0.05
2	284	14.2	0.05
2	286	14.3	0.05
2	286	14.368552888	0.05
2	288	14.4	0.05
2	290	14.5	0.05
2	292	14.6	0.05
2	294	14.7	0.05
2	296	14.8	0.05
2	296	14.891957392	0.05
2	298	14.9	0.05
2	300	15	0.05
2	302	15.1	0.0495
2	302	15.1	0.0495
2	304	15.2	0.0499
2	306	15.3	0.05
2	306	15.37074595	0.05
2	308	15.4	0.05
2	310	15.5	0.05
2	312	15.6	0.05
2	314	15.7	0.05
2	316	15.8	0.05
2	316	15.835550647	0.05
2	318	15.9	0.05
2	320	16	0.05
2	322	16.1	0.05
2	324	16.2	0.05
2	326	16.3	0.05
2	328	16.4	0.05
2	328	16.448602639	0.05
2	330	16.5	0.0495
2	330	16.5	0.0495
2	332	16.6	0.0499
2	334	16.7	0.05
2	336	16.8	0.05
2	338	16.9	0.05
2	338	16.978110745	0.05
2	340	17	0.05
2	342	17.1	0.05
2	344	17.2	0.05
2	346	17.3	0.05
2	348	17.4	0.05
2	350	17.5	0.05
2	350	17.505553513	0.05
2	352	17.6	0.05
2	354	17.7	0.05
2	356	17.8	0.05
2	358	17.9	0.05
2	360	18	0.0495
2	360	18	0.0495
2	360	18.019362754	0.049577451016
2	362	18.1	0.0499
2	364	18.2	0.05
2	366	18.3	0.05
2	368	18.4	0.05
2	370	18.5	0.05
2	370	18.515702587	0.05
2	372	18.6	0.05
2	374	18.7	0.05
2	376	18.8	0.05
2	378	18.9	0.05
2	380	19	0.05
2	382	19.1	0.05
2	382	19.185484762	0.05
2	384	19.2	0.05
2	386	19.3	0.05
2	388	19.4	0.0495
2	388	19.4	0.0495
2	390	19.5	0.0499
2	392	19.6	0.05
2	392	19.673457289	0.05
2	394	19.7	0.05
2	396	19.8	0.05
2	398	19.9	0.05
2	398	19.964873323	0.05
2	400	20	0.05
2	402	20.1	0.05
2	404	20.2	0.05
2	406	20.3	0.05
2	408	20.4	0.05
2	408	20.472769258	0.05
2	410	20.5	0.05
2	412	20.6	0.05
2	414	20.7	0.05
2	414	20.726671846	0.05
2	416	20.8	0.05
2	418	20.9	0.05
2	420	21	0.05
2	420	21.002354896	0.05
2	422	21.1	0.05
2	424	21.2	0.05
2	426	21.3	0.05
2	428	21.4	0.05
2	428	21.46797703	0.05
2	430	21.5	0.05
2	432	21.6	0.05
2	434	21.7	0.05
2	436	21.8	0.05
2	438	21.9	0.05
2	438	21.977454553	0.05
2	440	22	0.05
2	442	22.1	0.0495
2	442	22.1	0.0495
2	444	22.2	0.0499
2	446	22.3	0.05
2	448	22.4	0.05
2	448	22.434225358	0.05
2	450	22.5	0.05
2	452	22.6	0.05
2	454	22.7	0.05
2	456	22.8	0.05
2	458	22.9	0.05
2	458	22.902005899	0.05
2	460	23	0.05
2	463	23.1	0.05
2	465	23.2	0.05
2	467	23.3	0.05
2	467	23.334208822	0.05
2	469	23.4	0.05
2	471	23.5	0.05
2	473	23.6	0.05
2	473	23.615127178	0.05
2	475	23.7	0.05
2	477	23.8	0.05
2	477	23.896781644	0.05
2	479	23.9	0.05
2	481	24	0.05
2	483	24.1	0.05
2	483	24.155158165	0.05
2	485	24.2	0.05
2	487	24.3	0.05
2	487	24.38491876	0.05
2	489	24.4	0.05
2	491	24.5	0.05
2	493	24.6	0.05
2	493	24.652355191	0.05
2	495	24.7	0.05
2	497	24.8	0.05
2	499	24.9	0.05
2	499	24.923518537	0.05
2	501	25	0.05
2	503	25.1	0.05
2	503	25.19372707	0.05
2	505	25.2	0.05
2	507	25.3	0.05
2	509	25.4	0.05
2	511	25.5	0.05
2	513	25.6	0.05
2	515	25.7	0.05
2	517	25.8	0.05
2	517	25.819038535	0.05
2	519	25.9	0.05
2	521	26	0.05
2	523	26.1	0.05
2	525	26.2	0.05
2	527	26.3	0.05
2	529	26.4	0.05
2	531	26.5	0.05
2	531	26.518318372	0.05
2	533	26.6	0.05
2	536	26.7	0.05
2	539	26.8	0.05
2	542	26.9	0.05
2	544	27	0.05
2	545	27.053168296	0.05
2	547	27.1	0.05
2	549	27.2	0.05
2	551	27.3	0.05
2	553	27.4	0.05
2	555	27.5	0.05
2	555	27.532889488	0.05
2	557	27.6	0.05
2	559	27.7	0.05
2	561	27.8	0.05
2	561	27.822047611	0.05
2	563	27.9	0.05
2	565	28	0.05
2	565	28.087783381	0.05
2	567	28.1	0.05
2	569	28.2	0.05
2	571	28.3	0.05
2	573	28.4	0.05
2	575	28.5	0.05
2	577	28.6	0.05
2	577	28.603125412	0.05
2	579	28.7	0.05
2	581	28.8	0.05
2	583	28.9	0.05
2	585	29	0.05
2	587	29.1	0.05
2	589	29.2	0.05
2	589	29.226543367	0.05
2	591	29.3	0.05
2	593	29.4	0.05
2	595	29.5	0.05
2	597	29.6	0.05
2	599	29.7	0.05
2	599	29.769404635	0.05
2	601	29.8	0.05
2	603	29.9	0.05
2	605	30	0.05
2	607	30.1	0.05
2	609	30.2	0.05
2	611	30.3	0.05
2	611	30.330400405	0.05
2	613	30.4	0.05
2	615	30.5	0.05
2	617	30.6	0.05
2	619	30.7	0.05
2	619	30.771618529	0.05
2	621	30.8	0.05
2	623	30.9	0.05
2	625	31	0.05
2	627	31.1	0.05
2	629	31.2	0.05
2	629	31.265922301	0.05
2	631	31.3	0.05
2	633	31.4	0.05
2	635	31.5	0.05
2	637	31.6	0.05
2	639	31.7	0.05
2	639	31.797639109	0.05
2	641	31.8	0.05
2	643	31.9	0.05
2	645	32	0.05
2	645	32.086256032	0.05
2	647	32.1	0.05
2	649	32.2	0.05
2	651	32.3	0.05
2	653	32.4	0.05
2	655	32.5	0.05
2	655	32.597568976	0.05
2	657	32.6	0.05
2	659	32.7	0.05
2	661	32.8	0.05
2	663	32.9	0.05
2	665	33	0.05
2	665	33.088036	0.05
2	667	33.1	0.05
2	669	33.2	0.05
2	671	33.3	0.05
2	671	33.37793197	0.05
2	673	33.4	0.05
2	675	33.5	0.05
2	677	33.6	0.05
2	679	33.7	0.05
2	681	33.8	0.05
2	681	33.85969801	0.05
2	683	33.9	0.05
2	685	34	0.05
2	687	34.1	0.05
2	689	34.2	0.05
2	689	34.285345672	0.05
2	691	34.3	0.05
2	693	34.4	0.05
2	695	34.5	0.05
2	697	34.6	0.05
2	699	34.7	0.05
2	699	34.778399629	0.05
2	701	34.8	0.05
2	703	34.9	0.05
2	705	35	0.05
2	707	35.1	0.05
2	709	35.2	0.05
2	709	35.258724244	0.05
2	711	35.3	0.05
2	713	35.4	0.05
2	715	35.5	0.05
2	715	35.542144789	0.05
2	717	35.6	0.05
2	719	35.7	0.05
2	721	35.8	0.05
2	723	35.9	0.05
2	723	35.972141053	0.05
2	725	36	0.05
2	727	36.1	0.05
2	729	36.2	0.05
2	731	36.3	0.05
2	733	36.4	0.05
2	735	36.5	0.05
2	735	36.594283732	0.05
2	737	36.6	0.05
2	739	36.7	0.05
2	741	36.8	0.05
2	743	36.9	0.05
2	745	37	0.05
2	747	37.1	0.05
2	749	37.2	0.05
2	749	37.227400459	0.05
2	751	37.3	0.05
2	753	37.4	0.05
2	755	37.5	0.05
2	757	37.6	0.05
2	759	37.7	0.05
2	759	37.719925477	0.05
2	761	37.8	0.05
2	763	37.9	0.05
2	765	38	0.05
2	767	38.1	0.05
2	767	38.104771177	0.05
2	769	38.2	0.05
2	771	38.3	0.05
2	773	38.4	0.05
2	773	38.491962004	0.05
2	775	38.5	0.05
2	777	38.6	0.05
2	779	38.7	0.05
2	781	38.8	0.05
2	783	38.9	0.05
2	783	38.980085581	0.05
2	785	39	0.05
2	787	39.1	0.05
2	789	39.2	0.05
2	791	39.3	0.05
2	793	39.4	0.05
2	793	39.457295848	0.05
2	795	39.5	0.05
2	797	39.6	0.05
2	799	39.7	0.05
2	801	39.8	0.05
2	803	39.9	0.05
2	803	39.964166383	0.0495
[...]
2	2440	121.55111012514	0.041725688072504
2	2442	121.65111012514	0.041725688072504
2	2444	121.75111012514	0.041725688072504
2	2446	121.85111012514	0.041725688072504
2	2446	121.86087637	0.041725688072504
2	2448	121.95111012514	0.041308431191779
2	2448	121.95111012514	0.041308431191779
2	2450	122.05111012514	0.041308431191779
2	2452	122.15111012514	0.041308431191779
2	2454	122.25111012514	0.041308431191779
2	2456	122.35111012514	0.041308431191779
2	2456	122.356323313	0.041308431191779
2	2458	122.45111012514	0.041308431191779
2	2460	122.55111012514	0.041308431191779
2	2462	122.65111012514	0.041308431191779
2	2464	122.75111012514	0.041308431191779
2	2466	122.85111012514	0.041308431191779
2	2466	122.889203167	0.041308431191779
2	2468	122.95111012514	0.041308431191779
2	2470	123.05111012514	0.041308431191779
2	2472	123.15111012514	0.041308431191779
2	2474	123.25111012514	0.041308431191779
2	2476	123.35111012514	0.041308431191779
2	2476	123.379030519	0.041308431191779
2	2478	123.45111012514	0.041308431191779
2	2480	123.55111012514	0.041308431191779
2	2481	123.648655753	0.041308431191779
2	2482	123.65111012514	0.041308431191779
2	2484	123.75111012514	0.041308431191779
2	2486	123.85111012514	0.041308431191779
2	2488	123.95111012514	0.041308431191779
2	2490	124.05111012514	0.041308431191779
2	2490	124.117165249	0.041308431191779
2	2492	124.15111012514	0.041308431191779
2	2494	124.25111012514	0.041308431191779
2	2496	124.35111012514	0.041308431191779
2	2498	124.45111012514	0.041308431191779
2	2498	124.527620653	0.041308431191779
2	2500	124.55111012514	0.041308431191779
2	2502	124.65111012514	0.041308431191779
2	2504	124.75111012514	0.040895346879862
2	2504	124.75111012514	0.040895346879862
2	2506	124.85111012514	0.040895346879862
2	2508	124.95111012514	0.040895346879862
2	2510	125.05111012514	0.040895346879862
2	2510	125.106784558	0.040895346879862
2	2512	125.15111012514	0.040895346879862
2	2514	125.25111012514	0.040895346879862
2	2516	125.35111012514	0.040895346879862
2	2518	125.45111012514	0.040895346879862
2	2520	125.55111012514	0.040895346879862
2	2520	125.62881052	0.040895346879862
2	2522	125.65111012514	0.040895346879862
2	2524	125.75111012514	0.040895346879862
2	2526	125.85111012514	0.040895346879862
2	2526	125.893192273	0.040895346879862
2	2528	125.95111012514	0.040895346879862
2	2530	126.05111012514	0.040895346879862
2	2532	126.15111012514	0.040486393411063
2	2532	126.15111012514	0.040486393411063
2	2534	126.25111012514	0.040486393411063
2	2536	126.35111012514	0.040486393411063
2	2536	126.432971641	0.040486393411063
2	2538	126.45111012514	0.040486393411063
2	2540	126.55111012514	0.040486393411063
2	2542	126.65111012514	0.040486393411063
2	2544	126.75111012514	0.040486393411063
2	2546	126.85111012514	0.040486393411063
2	2548	126.95111012514	0.040486393411063
2	2548	126.979255963	0.040486393411063
2	2550	127.05111012514	0.040486393411063
2	2552	127.15111012514	0.040486393411063
2	2553	127.246511356	0.040486393411063
2	2554	127.25111012514	0.040486393411063
2	2556	127.35111012514	0.040486393411063
2	2558	127.45111012514	0.040486393411063
2	2560	127.55111012514	0.040081529476952
2	2560	127.55111012514	0.040081529476952
2	2562	127.65111012514	0.040081529476952
2	2562	127.707635491	0.040081529476952
2	2564	127.75111012514	0.040081529476952
2	2566	127.85111012514	0.040081529476952
2	2568	127.95111012514	0.040081529476952
2	2570	128.020866754844	0.040081529476952
2	2572	128.120866754844	0.040081529476952
2	2572	128.127041434	0.040081529476952
2	2574	128.220866754844	0.040081529476952
2	2576	128.320866754844	0.040081529476952
2	2578	128.420866754844	0.040081529476952
2	2580	128.520866754844	0.040081529476952
2	2582	128.620866754844	0.040081529476952
2	2582	128.652513649	0.040081529476952
2	2584	128.720866754844	0.040081529476952
2	2586	128.820866754844	0.040081529476952
2	2588	128.920866754844	0.039680714182183
2	2588	128.920866754844	0.039680714182183
2	2590	129.020866754844	0.039680714182183
2	2590	129.033604537	0.039680714182183
2	2592	129.120866754844	0.039680714182183
2	2594	129.220866754844	0.039680714182183
2	2594	129.300788773	0.039680714182183
2	2596	129.320866754844	0.039680714182183
2	2598	129.420866754844	0.039680714182183
2	2600	129.520866754844	0.039680714182183
2	2600	129.598477297	0.039680714182183
2	2602	129.620866754844	0.039680714182183
2	2604	129.720866754844	0.039680714182183
2	2606	129.820866754844	0.039680714182183
2	2608	129.920866754844	0.039680714182183
2	2610	130.020866754844	0.039680714182183
2	2610	130.085844757	0.039680714182183
2	2612	130.120866754844	0.039680714182183
2	2614	130.220866754844	0.039283907040361
2	2614	130.220866754844	0.039283907040361
2	2616	130.320866754844	0.039283907040361
2	2618	130.420866754844	0.039283907040361
2	2620	130.520866754844	0.039283907040361
2	2620	130.540858891	0.039283907040361
2	2622	130.620866754844	0.039283907040361
2	2624	130.720866754844	0.039283907040361
2	2626	130.820866754844	0.039283907040361
2	2628	130.920866754844	0.039283907040361
2	2630	131.020866754844	0.039283907040361
2	2632	131.120866754844	0.039283907040361
2	2632	131.150107159	0.039283907040361
2	2634	131.220866754844	0.039283907040361
2	2636	131.320866754844	0.039283907040361
2	2638	131.420866754844	0.039283907040361
2	2640	131.520866754844	0.039283907040361
2	2642	131.620866754844	0.039283907040361
2	2644	131.720866754844	0.038891067969957
2	2644	131.720866754844	0.038891067969957
2	2644	131.766108466	0.038891067969957
2	2646	131.820866754844	0.038891067969957
2	2648	131.920866754844	0.038891067969957
2	2650	132.020866754844	0.038891067969957
2	2652	132.120866754844	0.038891067969957
2	2654	132.220866754844	0.038891067969957
2	2656	132.320866754844	0.038891067969957
2	2656	132.353923576	0.038891067969957
2	2658	132.420866754844	0.038891067969957
2	2660	132.520866754844	0.038891067969957
2	2662	132.620866754844	0.038891067969957
2	2662	132.648225997	0.038891067969957
2	2664	132.720866754844	0.038891067969957
2	2666	132.820866754844	0.038891067969957
2	2668	132.920866754844	0.038891067969957
2	2670	133.020866754844	0.038891067969957
2	2672	133.120866754844	0.038502157290258
2	2672	133.120866754844	0.038502157290258
2	2672	133.144703173	0.038502157290258
2	2674	133.220866754844	0.038502157290258
2	2676	133.320866754844	0.038502157290258
2	2678	133.420866754844	0.038502157290258
2	2678	133.43527201	0.038502157290258
2	2680	133.520866754844	0.038502157290258
2	2682	133.620866754844	0.038502157290258
2	2684	133.720866754844	0.038502157290258
2	2686	133.820866754844	0.038502157290258
2	2686	133.839419683	0.038502157290258
2	2688	133.920866754844	0.038502157290258
2	2690	134.020866754844	0.038502157290258
2	2692	134.120866754844	0.038502157290258
2	2694	134.220866754844	0.038502157290258
2	2694	134.297221525	0.038502157290258
2	2696	134.320866754844	0.038502157290258
2	2698	134.420866754844	0.038117135717355
2	2698	134.420866754844	0.038117135717355
2	2700	134.520866754844	0.038117135717355
2	2702	134.620866754844	0.038117135717355
2	2704	134.720866754844	0.038117135717355
2	2706	134.820866754844	0.038117135717355
2	2707	134.823571928832	0.038117135717355
2	2708	134.91002509	0.038462948362027
2	2709	134.919287999493	0.0385
2	2710	134.920866754844	0.038506315021404
2	2712	135.020866754844	0.038906315021404
2	2713	135.044287999493	0.039
2	2715	135.120866754844	0.039306315021404
2	2716	135.169287999493	0.0395
2	2718	135.220866754844	0.039706315021404
2	2719	135.294287999493	0.04
2	2721	135.320866754844	0.040106315021404
2	2721	135.368591542	0.040297214170028
2	2723	135.419287999493	0.0405
2	2724	135.420866754844	0.040506315021404
2	2726	135.520866754844	0.040906315021404
2	2727	135.544287999493	0.041
2	2729	135.620866754844	0.041306315021404
2	2730	135.669287999493	0.0415
2	2732	135.720866754844	0.041706315021404
2	2733	135.794287999493	0.042
2	2735	135.820866754844	0.042106315021404
2	2737	135.919287999493	0.0425
2	2738	135.920866754844	0.042506315021404
2	2740	136.020866754844	0.042906315021404
2	2740	136.025057188	0.042923076754028
2	2741	136.044287999493	0.043
2	2743	136.120866754844	0.043306315021404
2	2744	136.169287999493	0.0435
2	2746	136.220866754844	0.043706315021404
2	2747	136.294287999493	0.044
2	2748	136.320046735	0.044103034942028
2	2749	136.320866754844	0.044106315021404
2	2751	136.419287999493	0.0445
2	2752	136.420866754844	0.044506315021404
2	2754	136.520866754844	0.044906315021404
2	2755	136.544287999493	0.045
2	2755	136.57481794	0.045122119762028
2	2757	136.620866754844	0.045306315021404
2	2758	136.669287999493	0.0455
2	2760	136.720866754844	0.045706315021404
2	2761	136.794287999493	0.046
2	2763	136.820866754844	0.046106315021404
2	2765	136.919287999493	0.0465
2	2766	136.920866754844	0.046506315021404
2	2768	137.020866754844	0.046906315021404
2	2768	137.032313524	0.046952102098028
2	2769	137.044287999493	0.047
2	2771	137.120866754844	0.047306315021404
2	2772	137.169287999493	0.0475
2	2774	137.220866754844	0.047706315021404
2	2775	137.294287999493	0.048
2	2777	137.320866754844	0.048106315021404
2	2777	137.323207474	0.048115677898028
2	2779	137.419287999493	0.0485
2	2780	137.420866754844	0.048506315021404
2	2782	137.520866754844	0.048906315021404
2	2783	137.544287999493	0.049
2	2785	137.620866754844	0.049306315021404
2	2786	137.669287999493	0.049005
2	2786	137.669287999493	0.049005
2	2788	137.720866754844	0.049211315021404
2	2788	137.762386015	0.049377392062028
2	2789	137.793037999493	0.0495
2	2791	137.820866754844	0.049611315021404
2	2793	137.918037999493	0.05
2	2794	137.920866754844	0.05
2	2796	138.020866754844	0.05
2	2798	138.120866754844	0.05
2	2798	138.170798995	0.05
2	2800	138.220866754844	0.05
2	2802	138.320866754844	0.05
2	2804	138.420866754844	0.05
2	2806	138.520866754844	0.05
2	2808	138.620866754844	0.05
2	2810	138.720866754844	0.05
2	2810	138.750112144	0.05
2	2812	138.820866754844	0.05
2	2814	138.920866754844	0.0495
2	2814	138.920866754844	0.0495
2	2816	139.020866754844	0.0499
2	2818	139.120866754844	0.05
2	2818	139.128225742	0.05
2	2820	139.220866754844	0.05
2	2822	139.320866754844	0.05
2	2824	139.420866754844	0.05
2	2826	139.520866754844	0.05
2	2826	139.565770759	0.05
2	2828	139.620866754844	0.05
2	2830	139.720866754844	0.05
2	2832	139.820866754844	0.05
2	2834	139.920866754844	0.05
2	2834	139.959592177	0.05
2	2836	140.020866754844	0.05
2	2838	140.120866754844	0.05
2	2840	140.220866754844	0.05
2	2842	140.320866754844	0.0495
2	2842	140.320866754844	0.0495
2	2843	140.403579577	0.049830851288624
2	2844	140.420866754844	0.0499
2	2846	140.520866754844	0.05
2	2848	140.620866754844	0.05
2	2849	140.678970391	0.05
2	2850	140.720866754844	0.05
2	2852	140.820866754844	0.05
2	2854	140.920866754844	0.05
2	2856	141.020866754844	0.05
2	2858	141.120866754844	0.05
2	2859	141.18922675	0.05
2	2860	141.220866754844	0.05
2	2862	141.320866754844	0.05
2	2864	141.420866754844	0.05
2	2866	141.520866754844	0.05
2	2867	141.582723445	0.05
2	2868	141.620866754844	0.0495
2	2868	141.620866754844	0.0495
2	2870	141.720866754844	0.0499
2	2872	141.820866754844	0.05
2	2874	141.920866754844	0.05
2	2875	142.003083796	0.05
2	2876	142.020866754844	0.05
2	2878	142.120866754844	0.05
2	2880	142.220866754844	0.05
2	2882	142.320866754844	0.05
2	2884	142.420866754844	0.05
2	2884	142.47554722	0.05
2	2886	142.520866754844	0.05
2	2888	142.620866754844	0.05
2	2890	142.720866754844	0.05
2	2892	142.820866754844	0.05
2	2893	142.911719761	0.05
2	2894	142.920866754844	0.05
2	2896	143.020866754844	0.0495
2	2896	143.020866754844	0.0495
2	2898	143.120866754844	0.0499
2	2900	143.220866754844	0.05
2	2902	143.320866754844	0.05
2	2902	143.338733608	0.05
2	2904	143.420866754844	0.05
2	2906	143.520866754844	0.05
2	2908	143.620866754844	0.05
2	2910	143.720866754844	0.05
2	2912	143.820866754844	0.05
2	2912	143.844006388	0.05
2	2914	143.920866754844	0.05
2	2916	144.020866754844	0.05
2	2918	144.120866754844	0.05
2	2918	144.142972573	0.05
2	2921	144.220866754844	0.05
2	2924	144.320866754844	0.0495
2	2924	144.320866754844	0.0495
2	2927	144.420866754844	0.0499
2	2930	144.520866754844	0.05
2	2932	144.620866754844	0.05
2	2933	144.653944153	0.05
2	2935	144.720866754844	0.05
2	2938	144.820866754844	0.05
2	2941	144.920866754844	0.05
2	2944	145.020866754844	0.05
2	2945	145.07685517	0.05
2	2946	145.120866754844	0.05
2	2949	145.220866754844	0.05
2	2952	145.320866754844	0.05
2	2955	145.420866754844	0.05
2	2958	145.520866754844	0.05
2	2961	145.620866754844	0.05
2	2961	145.625585602	0.05
2	2963	145.720866754844	0.05
2	2966	145.820866754844	0.05
2	2969	145.920866754844	0.05
2	2972	146.020866754844	0.05
2	2975	146.120866754844	0.05
2	2977	146.220866754844	0.05
2	2977	146.222674021	0.05
2	2980	146.320866754844	0.05
2	2983	146.420866754844	0.05
2	2986	146.520866754844	0.05
2	2989	146.620866754844	0.05
2	2990	146.702933005	0.05
2	2991	146.720866754844	0.05
2	2994	146.820866754844	0.05
2	2997	146.920866754844	0.05
2	3000	147.020866754844	0.05
2	3003	147.120866754844	0.05
2	3003	147.134565493	0.05
2	3005	147.220866754844	0.05
2	3008	147.320866754844	0.05
2	3010	147.414550207	0.05
2	3011	147.420866754844	0.05
2	3014	147.520866754844	0.05
2	3017	147.620866754844	0.05
2	3019	147.720866754844	0.05
2	3022	147.820866754844	0.05
2	3023	147.846547165	0.05
2	3025	147.920866754844	0.05
2	3028	148.020866754844	0.05
2	3031	148.120866754844	0.05
2	3033	148.220866754844	0.05
2	3036	148.320866754844	0.05
2	3037	148.405420324	0.05
2	3038	148.420866754844	0.05
2	3040	148.520866754844	0.05
2	3042	148.620866754844	0.0495
2	3042	148.620866754844	0.0495
2	3044	148.720866754844	0.0499
2	3046	148.820866754844	0.05
2	3047	148.885437955	0.05
2	3048	148.920866754844	0.05
2	3050	149.020866754844	0.05
2	3052	149.120866754844	0.05
2	3054	149.220866754844	0.05
2	3056	149.320866754844	0.05
2	3058	149.420866754844	0.05
2	3059	149.482174156	0.05
2	3060	149.520866754844	0.05
2	3062	149.620866754844	0.05
2	3064	149.720866754844	0.05
2	3066	149.820866754844	0.05
2	3068	149.920866754844	0.05
2	3070	150.020866754844	0.05
2	3072	150.120866754844	0.0495
2	3072	150.120866754844	0.0495
2	3074	150.220866754844	0.0499
2	3075	150.240938179	0.049980285696624
2	3076	150.320866754844	0.05
2	3078	150.420866754844	0.05
2	3080	150.520866754844	0.05
2	3082	150.620866754844	0.05
2	3083	150.701788723	0.05
2	3084	150.720866754844	0.05
2	3086	150.820866754844	0.05
2	3088	150.920866754844	0.05
2	3090	151.020866754844	0.05
2	3092	151.120866754844	0.05
2	3094	151.220866754844	0.05
2	3095	151.276595677	0.05
2	3096	151.320866754844	0.05
2	3098	151.420866754844	0.05
2	3100	151.520866754844	0.0495
2	3100	151.520866754844	0.0495
2	3102	151.620866754844	0.0499
2	3104	151.720866754844	0.05
2	3105	151.775173372	0.05
2	3106	151.820866754844	0.05
2	3108	151.920866754844	0.05
2	3110	152.020866754844	0.05
2	3112	152.120866754844	0.05
2	3114	152.220866754844	0.05
2	3115	152.268608524	0.05
2	3116	152.320866754844	0.05
2	3118	152.420866754844	0.05
2	3120	152.520866754844	0.05
2	3122	152.620866754844	0.05
2	3124	152.720866754844	0.05
2	3125	152.75987158	0.05
2	3126	152.820866754844	0.05
2	3128	152.920866754844	0.0495
2	3128	152.920866754844	0.0495
2	3130	153.020866754844	0.0499
2	3130	153.031460608	0.049942375412624
2	3132	153.120866754844	0.05
2	3134	153.220866754844	0.05
2	3136	153.320866754844	0.05
2	3138	153.420866754844	0.05
2	3140	153.520866754844	0.05
2	3141	153.545426812	0.05
2	3142	153.620866754844	0.05
2	3144	153.720866754844	0.05
2	3146	153.820866754844	0.05
2	3148	153.920866754844	0.05
2	3150	154.020866754844	0.05
2	3150	154.023738412	0.05
2	3152	154.120866754844	0.05
2	3154	154.220866754844	0.05
2	3156	154.320866754844	0.0495
2	3156	154.320866754844	0.0495
2	3158	154.420866754844	0.0499
2	3160	154.520866754844	0.05
2	3162	154.620866754844	0.05
2	3162	154.635758362	0.05
2	3164	154.720866754844	0.05
2	3166	154.820866754844	0.05
2	3168	154.920866754844	0.05
2	3170	155.020866754844	0.05
2	3172	155.120866754844	0.05
2	3174	155.220866754844	0.05
2	3176	155.320866754844	0.05
2	3177	155.360561524	0.05
2	3178	155.420866754844	0.05
2	3180	155.520866754844	0.05
2	3182	155.620866754844	0.05
2	3184	155.720866754844	0.05
2	3185	155.7922348	0.0495
2	3185	155.7922348	0.0495
2	3186	155.820866754844	0.049614527819376
2	3188	155.920866754844	0.05
2	3190	156.020866754844	0.05
2	3192	156.120866754844	0.05
2	3193	156.214084273	0.05
2	3194	156.220866754844	0.05
2	3196	156.320866754844	0.05
2	3198	156.420866754844	0.05
2	3200	156.520866754844	0.05
2	3201	156.620037568	0.05
2	3202	156.620866754844	0.05
2	3204	156.720866754844	0.05
2	3206	156.820866754844	0.05
2	3208	156.920866754844	0.05
2	3210	157.020866754844	0.05
2	3211	157.040879233	0.05
2	3212	157.120866754844	0.0495
2	3212	157.120866754844	0.0495
2	3214	157.220866754844	0.0499
2	3216	157.320866754844	0.05
2	3218	157.420866754844	0.05
2	3219	157.477635289	0.05
2	3220	157.520866754844	0.05
2	3222	157.620866754844	0.05
2	3224	157.720866754844	0.05
2	3225	157.752209335	0.05
2	3226	157.820866754844	0.05
2	3228	157.920866754844	0.05
2	3230	158.020866754844	0.05
2	3230	158.026998718	0.05
2	3232	158.120866754844	0.05
2	3234	158.220866754844	0.05
2	3236	158.320866754844	0.05
2	3238	158.420866754844	0.05
2	3239	158.49677251	0.0495
2	3239	158.49677251	0.0495
2	3240	158.520866754844	0.049596376979376
2	3242	158.620866754844	0.049996376979376
2	3244	158.720866754844	0.05
2	3246	158.820866754844	0.05
2	3248	158.920866754844	0.05
2	3248	158.923804009	0.05
2	3250	159.020866754844	0.05
2	3252	159.120866754844	0.05
2	3253	159.218362384	0.05
2	3254	159.220866754844	0.05
2	3256	159.320866754844	0.05
2	3258	159.420866754844	0.05
2	3260	159.520866754844	0.05
2	3262	159.620866754844	0.05
2	3262	159.632921107	0.05
2	3264	159.720866754844	0.05
2	3266	159.820866754844	0.0495
2	3266	159.820866754844	0.0495
2	3268	159.920866754844	0.0499
2	3270	160.020866754844	0.05
2	3270	160.027769302	0.05
2	3272	160.120866754844	0.05
2	3274	160.220866754844	0.05
2	3275	160.295660923	0.05
2	3276	160.320866754844	0.05
2	3278	160.420866754844	0.05
2	3280	160.520866754844	0.05
2	3282	160.620866754844	0.05
2	3283	160.696910089	0.05
2	3284	160.720866754844	0.05
2	3286	160.820866754844	0.05
2	3288	160.920866754844	0.05
2	3290	160.973580509236	0.05
2	3292	161.073580509236	0.05
2	3294	161.173580509236	0.0495
2	3294	161.173580509236	0.0495
2	3294	161.196076615	0.049589984423056
2	3296	161.273580509236	0.0499
2	3298	161.373580509236	0.05
2	3300	161.473580509236	0.05
2	3302	161.573580509236	0.05
2	3304	161.673580509236	0.05
2	3304	161.723475022	0.05
2	3306	161.773580509236	0.05
2	3308	161.873580509236	0.05
2	3310	161.973580509236	0.05
2	3312	162.073580509236	0.05
2	3314	162.173580509236	0.05
2	3316	162.273580509236	0.05
2	3316	162.30131014	0.05
2	3318	162.373580509236	0.05
2	3320	162.473580509236	0.05
2	3322	162.573580509236	0.0495
2	3322	162.573580509236	0.0495
2	3324	162.673580509236	0.0499
2	3326	162.773580509236	0.05
2	3328	162.873580509236	0.05
2	3328	162.888188779	0.05
2	3330	162.973580509236	0.05
2	3332	163.073580509236	0.05
2	3334	163.173580509236	0.05
2	3335	163.271702113	0.05
2	3336	163.273580509236	0.05
2	3338	163.373580509236	0.05
2	3340	163.473580509236	0.05
2	3342	163.573580509236	0.05
2	3344	163.673580509236	0.05
2	3344	163.707748996	0.05
2	3346	163.773580509236	0.05
2	3348	163.873580509236	0.05
2	3350	163.973580509236	0.0495
2	3350	163.973580509236	0.0495
2	3350	163.992744946	0.049576657747056
2	3352	164.073580509236	0.0499
2	3354	164.173580509236	0.05
2	3356	164.273580509236	0.05
2	3358	164.373580509236	0.05
2	3358	164.404338682	0.05
2	3360	164.473580509236	0.05
2	3362	164.573580509236	0.05
2	3364	164.673580509236	0.05
2	3365	164.76473338	0.05
2	3366	164.773580509236	0.05
2	3368	164.873580509236	0.05
2	3370	164.973580509236	0.05
2	3372	165.073580509236	0.05
2	3374	165.173580509236	0.05
2	3376	165.273580509236	0.05
2	3376	165.329552866	0.05
2	3376	165.337949309327	0.05
3	0	0	0.004
3	945	46.974101355068	0
3	2707	134.823571928832	0.004
4	0	0	0.004
4	461	23.08057828677	0
4	534	26.633716071587	0.004
4	944	46.956175101225	0
4	2919	144.17229317047	0.004
5	0	0	0.004
5	945	46.974101355068	0
5	2707	134.823571928832	0.004

