version 2
run Mysterio_ex2-0-20211020-14:39:10-7366
attr configname Mysterio_ex2
attr datetime 20211020-14:39:10
attr experiment Mysterio_ex2
attr inifile omnetpp.ini
attr iterationvars ""
attr iterationvarsf ""
attr measurement ""
attr network MysterioCommunication2
attr processid 7366
attr repetition 0
attr replication #0
attr resultdir results
attr runnumber 0
attr seedset 0
param *.host[*].mobility.numeroDrones 2
param *.numHosts 2
param *.host[*].osgModel "\"3d/drone.ive.100.scale.0,0,90.rot\""
param *.basestation.osgModel "\"3d/car.ive.50.scale.0,0,90.rot\""
param *.canvasVisualizer.energyStorageVisualizer.displayEnergyStorages true
param *.host[*].hasStatus true
param *.host[*].energyStorage.typename "\"SimpleEpEnergyStorage\""
param *.host[*].wlan[*].radio.energyConsumer.typename "\"StateBasedEpEnergyConsumer\""
param *.host[*].energyManagement.typename "\"SimpleEpEnergyManagement\""
param *.host[*].energyStorage.nominalCapacity 0.05J
param *.host[*].energyManagement.nodeShutdownCapacity "0.1 * energyStorage.nominalCapacity"
param *.host[*].energyManagement.nodeStartCapacity "0.5 * energyStorage.nominalCapacity"
param *.host[*].energyStorage.initialCapacity 0.05J
param *.host[*].energyGenerator.typename "\"AlternatingEpEnergyGenerator\""
param *.host[*].energyGenerator.powerGeneration 4mW
param *.host[*].energyGenerator.sleepInterval exponential(25s)
param *.host[*].energyGenerator.generationInterval exponential(25s)
param *.host[*].mobility.typename "\"UAVMobility\""
param *.host[*].mobility.changeInterval 1s
param *.host[*].mobility.initialMovementHeading "uniform(0deg, 360deg)"
param *.host[*].mobility.initialMovementElevation "uniform(-90deg, 90deg)"
param *.host[*].mobility.angleDelta uniform(-10deg,10deg)
param *.host[*].mobility.rotationAxisAngle uniform(-10deg,10deg)
param *.host[*].mobility.speed uniform(10mps,20mps)
param *.host[*].mobility.faceForward false
param *.host[*].mobility.initialX 220m
param *.host[*].mobility.initialY 220m
param *.host[*].mobility.initialZ 80m
param *.visualizer.osgVisualizer.typename "\"IntegratedOsgVisualizer\""
param *.visualizer.osgVisualizer.sceneVisualizer.clearColor "\"skyblue\""
param *.visualizer.osgVisualizer.sceneVisualizer.sceneImage "\"showcases/desert\""
param *.visualizer.osgVisualizer.sceneVisualizer.sceneImageSize 5000m
param *.visualizer.osgVisualizer.sceneVisualizer.axisLength 1000m
param *.visualizer.osgVisualizer.sceneVisualizer.sceneMinX -2000m
param *.visualizer.osgVisualizer.sceneVisualizer.sceneMinY -2000m
param *.visualizer.osgVisualizer.sceneVisualizer.sceneMinZ 0m
param *.visualizer.osgVisualizer.sceneVisualizer.sceneMaxX 3000m
param *.visualizer.osgVisualizer.sceneVisualizer.sceneMaxY 3000m
param *.visualizer.osgVisualizer.sceneVisualizer.sceneMaxZ 1000m
param *.visualizer.osgVisualizer.networkNodeVisualizer.displayModuleName false
param *.visualizer.*.mobilityVisualizer.displayMobility true
param *.visualizer.*.mobilityVisualizer.displayPositions true
param *.visualizer.*.mobilityVisualizer.displayOrientations false
param *.visualizer.*.mobilityVisualizer.displayVelocities true
param *.visualizer.*.mobilityVisualizer.displayMovementTrails true
param *.visualizer.*.mobilityVisualizer.animationSpeed 3
param **.constraintAreaMinX 0m
param **.constraintAreaMinY 0m
param **.constraintAreaMinZ 0m
param **.constraintAreaMaxX 1000m
param **.constraintAreaMaxY 1000m
param **.constraintAreaMaxZ 1000m
param **.networkConfiguratorModule "\"\""

vector 0 MysterioCommunication2.host[0].energyStorage residualEnergyCapacity:vector ETV
attr interpolationmode linear
attr source residualEnergyCapacityChanged
attr title "Residual energy capacity, vector"
vector 1 MysterioCommunication2.host[0].energyGenerator powerGeneration:vector ETV
attr interpolationmode sample-hold
attr source powerGenerationChanged
attr title "Power generation, vector"
vector 2 MysterioCommunication2.host[1].energyStorage residualEnergyCapacity:vector ETV
attr interpolationmode linear
attr source residualEnergyCapacityChanged
attr title "Residual energy capacity, vector"
vector 3 MysterioCommunication2.host[1].energyGenerator powerGeneration:vector ETV
attr interpolationmode sample-hold
attr source powerGenerationChanged
attr title "Power generation, vector"
vector 4 MysterioCommunication2.host[0].energyStorage powerGeneration:vector ETV
attr interpolationmode sample-hold
attr source powerGenerationChanged
attr title "Power generation, vector"
vector 5 MysterioCommunication2.host[1].energyStorage powerGeneration:vector ETV
attr interpolationmode sample-hold
attr source powerGenerationChanged
attr title "Power generation, vector"
0	0	0	0.05
0	0	0.1	0.05
0	2	0.151009015	0.05
0	3	0.2	0.05
0	5	0.3	0.05
0	7	0.4	0.05
0	9	0.5	0.05
0	10	0.587341033	0.05
0	11	0.6	0.05
0	13	0.7	0.05
0	15	0.8	0.05
0	17	0.9	0.05
0	19	1	0.05
0	21	1.1	0.05
0	23	1.2	0.05
0	24	1.233565171	0.05
0	25	1.3	0.05
0	27	1.4	0.05
0	29	1.5	0.05
0	31	1.6	0.05
0	33	1.7	0.05
0	34	1.715644138	0.05
0	35	1.8	0.05
0	37	1.9	0.05
0	39	2	0.05
0	41	2.1	0.05
0	42	2.167383358	0.05
0	43	2.2	0.05
0	45	2.3	0.05
0	47	2.4	0.05
0	48	2.458273582	0.05
0	49	2.5	0.05
0	51	2.6	0.05
0	53	2.7	0.05
0	55	2.8	0.05
0	57	2.9	0.05
0	58	2.937447829	0.05
0	59	3	0.05
0	61	3.1	0.05
0	63	3.2	0.05
0	65	3.3	0.05
0	67	3.4	0.05
0	68	3.418657477	0.05
0	69	3.5	0.05
0	71	3.6	0.05
0	73	3.7	0.05
0	75	3.8	0.05
0	76	3.829755826	0.05
0	77	3.9	0.05
0	79	4	0.05
0	81	4.1	0.05
0	83	4.2	0.05
0	85	4.3	0.05
0	86	4.351859692	0.05
0	87	4.4	0.05
0	89	4.5	0.05
0	91	4.6	0.05
0	93	4.7	0.05
0	95	4.8	0.05
0	96	4.85103877	0.05
0	97	4.9	0.05
0	99	5	0.05
0	101	5.1	0.05
0	102	5.118474505	0.05
0	103	5.2	0.05
0	105	5.3	0.05
0	107	5.4	0.05
0	109	5.5	0.05
0	110	5.563867003	0.05
0	111	5.6	0.05
0	113	5.7	0.05
0	115	5.8	0.05
0	117	5.9	0.05
0	119	6	0.05
0	120	6.01578763	0.05
0	121	6.1	0.05
0	123	6.2	0.05
0	125	6.3	0.05
0	127	6.4	0.05
0	129	6.5	0.05
0	130	6.510835699	0.05
0	131	6.6	0.05
0	133	6.7	0.05
0	134	6.774411118	0.05
0	135	6.8	0.05
0	137	6.9	0.05
0	139	7	0.05
0	141	7.1	0.05
0	143	7.2	0.05
0	144	7.240789261	0.05
0	145	7.3	0.05
0	147	7.4	0.05
0	149	7.5	0.05
0	151	7.6	0.05
0	153	7.7	0.05
0	155	7.8	0.05
0	156	7.828067164	0.05
0	157	7.9	0.05
0	159	8	0.05
0	161	8.1	0.05
0	163	8.2	0.05
0	164	8.280079789	0.05
0	165	8.3	0.05
0	167	8.4	0.05
0	169	8.5	0.05
0	170	8.557986184	0.05
0	171	8.6	0.05
0	173	8.7	0.05
0	175	8.8	0.05
0	177	8.9	0.05
0	178	8.990077108	0.05
0	179	9	0.05
0	181	9.1	0.05
0	183	9.2	0.05
0	185	9.3	0.05
0	187	9.4	0.05
0	188	9.473581342	0.05
0	189	9.5	0.05
0	191	9.6	0.05
0	193	9.7	0.05
0	195	9.8	0.05
0	197	9.9	0.05
0	198	9.903505753	0.05
0	199	10	0.05
0	201	10.1	0.05
0	203	10.2	0.05
0	205	10.3	0.05
0	206	10.393931335	0.05
0	207	10.4	0.05
0	209	10.5	0.05
0	211	10.6	0.05
0	213	10.7	0.05
0	215	10.8	0.05
0	216	10.836646402	0.05
0	217	10.9	0.05
0	219	11	0.05
0	221	11.1	0.05
0	223	11.2	0.05
0	224	11.285224363	0.05
0	225	11.3	0.05
0	227	11.4	0.05
0	229	11.5	0.05
0	231	11.6	0.05
0	233	11.7	0.05
0	234	11.785737793	0.05
0	235	11.8	0.05
0	237	11.9	0.05
0	239	12	0.05
0	241	12.1	0.05
0	243	12.2	0.05
0	244	12.229082038	0.05
0	245	12.3	0.05
0	247	12.4	0.05
0	249	12.5	0.05
0	251	12.6	0.05
0	253	12.7	0.05
0	254	12.703170601	0.05
0	255	12.8	0.05
0	257	12.9	0.05
0	259	13	0.05
0	261	13.1	0.05
0	262	13.122420976	0.05
0	263	13.2	0.05
0	265	13.3	0.05
0	267	13.4	0.05
0	269	13.5	0.05
0	270	13.567685701	0.05
0	271	13.6	0.05
0	273	13.7	0.05
0	275	13.8	0.05
0	277	13.9	0.05
0	278	13.986962182	0.05
0	279	14	0.05
0	281	14.1	0.05
0	283	14.2	0.05
0	285	14.3	0.05
0	287	14.4	0.05
0	288	14.432923537	0.05
0	289	14.5	0.05
0	291	14.6	0.05
0	293	14.7	0.05
0	295	14.8	0.05
0	297	14.9	0.05
0	298	14.90888395	0.05
0	299	15	0.05
0	301	15.1	0.05
0	303	15.2	0.05
0	305	15.3	0.05
0	307	15.4	0.05
0	308	15.40574905	0.05
0	309	15.5	0.05
0	311	15.6	0.05
0	313	15.7	0.05
0	315	15.8	0.05
0	317	15.9	0.05
0	318	15.912683443	0.05
0	319	16	0.05
0	321	16.1	0.05
0	323	16.2	0.05
0	325	16.3	0.05
0	327	16.4	0.05
0	328	16.402307305	0.05
0	329	16.5	0.05
0	331	16.6	0.05
0	333	16.7	0.05
0	335	16.8	0.05
0	336	16.88197459	0.05
0	337	16.9	0.05
0	339	17	0.05
0	341	17.1	0.05
0	343	17.2	0.05
0	345	17.3	0.05
0	346	17.350641442	0.05
0	347	17.4	0.05
0	349	17.5	0.05
0	351	17.6	0.05
0	353	17.7	0.05
0	355	17.8	0.05
0	356	17.806949104	0.05
0	357	17.9	0.05
0	359	18	0.05
0	361	18.1	0.05
0	363	18.2	0.05
0	365	18.3	0.05
0	366	18.391068019	0.05
0	367	18.4	0.05
0	369	18.5	0.05
0	371	18.6	0.05
0	373	18.7	0.05
0	375	18.8	0.05
0	377	18.9	0.05
0	378	18.997208155	0.05
0	379	19	0.05
0	381	19.1	0.05
0	383	19.2	0.05
0	385	19.3	0.05
0	387	19.4	0.05
0	389	19.5	0.05
0	390	19.569915502	0.05
0	391	19.6	0.05
0	393	19.7	0.05
0	395	19.8	0.05
0	397	19.9	0.05
0	399	20	0.05
0	400	20.076763507	0.05
0	401	20.1	0.05
0	403	20.2	0.05
0	405	20.3	0.05
0	406	20.364897376	0.05
0	407	20.4	0.05
0	409	20.5	0.05
0	411	20.6	0.05
0	413	20.7	0.05
0	415	20.8	0.05
0	417	20.9	0.05
0	418	20.946423469	0.05
0	419	21	0.05
0	421	21.1	0.05
0	423	21.2	0.05
0	425	21.3	0.05
0	426	21.392757976	0.05
0	427	21.4	0.05
0	429	21.5	0.05
0	431	21.6	0.05
0	433	21.7	0.05
0	435	21.8	0.05
0	436	21.860464243	0.05
0	437	21.9	0.05
0	439	22	0.05
0	441	22.1	0.05
0	443	22.2	0.05
0	445	22.3	0.05
0	446	22.327425601	0.05
0	447	22.4	0.05
0	449	22.5	0.05
0	451	22.6	0.05
0	453	22.7	0.05
0	455	22.8	0.05
0	457	22.9	0.05
0	458	22.943333722	0.05
0	459	23	0.05
0	461	23.08057828677	0.05
0	462	23.1	0.05
0	464	23.2	0.05
0	466	23.3	0.05
0	468	23.4	0.05
0	470	23.5	0.05
0	471	23.533348375	0.05
0	472	23.6	0.05
0	474	23.7	0.0495
0	474	23.7	0.0495
0	476	23.8	0.0495
0	478	23.9	0.0495
0	480	24	0.0495
0	481	24.040427305	0.0495
0	482	24.1	0.0495
0	484	24.2	0.0495
0	486	24.3	0.0495
0	487	24.32056192	0.0495
0	488	24.4	0.0495
0	490	24.5	0.0495
0	492	24.6	0.0495
0	494	24.7	0.0495
0	496	24.8	0.0495
0	497	24.844701943	0.0495
0	498	24.9	0.0495
0	500	25	0.0495
0	502	25.1	0.049005
0	502	25.1	0.049005
0	504	25.2	0.049005
0	506	25.3	0.049005
0	507	25.313309605	0.049005
0	508	25.4	0.049005
0	510	25.5	0.049005
0	512	25.6	0.049005
0	514	25.7	0.049005
0	516	25.8	0.049005
0	517	25.860549244	0.049005
0	518	25.9	0.049005
0	520	26	0.049005
0	522	26.1	0.049005
0	524	26.2	0.049005
0	526	26.3	0.049005
0	528	26.4	0.049005
0	529	26.49906385	0.049005
0	530	26.5	0.04851495
0	530	26.5	0.04851495
0	532	26.6	0.04851495
0	534	26.7	0.04851495
0	536	26.8	0.04851495
0	538	26.9	0.04851495
0	539	26.98563361	0.04851495
0	540	27	0.04851495
0	542	27.1	0.04851495
0	544	27.2	0.04851495
0	546	27.3	0.04851495
0	548	27.4	0.04851495
0	550	27.5	0.04851495
0	551	27.522682417	0.04851495
0	552	27.6	0.04851495
0	554	27.7	0.04851495
0	556	27.8	0.04851495
0	558	27.9	0.04851495
0	560	28	0.0480298005
0	560	28	0.0480298005
0	562	28.1	0.0480298005
0	564	28.2	0.0480298005
0	565	28.221046735	0.0480298005
0	566	28.3	0.0480298005
0	568	28.4	0.0480298005
0	570	28.5	0.0480298005
0	572	28.6	0.0480298005
0	574	28.7	0.0480298005
0	575	28.789160821	0.0480298005
0	576	28.8	0.0480298005
0	578	28.9	0.0480298005
0	580	29	0.0480298005
0	582	29.1	0.0480298005
0	584	29.2	0.0480298005
0	585	29.257036372	0.0480298005
0	586	29.3	0.0480298005
0	588	29.4	0.047549502495
0	588	29.4	0.047549502495
0	590	29.5	0.047549502495
0	592	29.6	0.047549502495
0	594	29.7	0.047549502495
0	595	29.717308018	0.047549502495
0	596	29.8	0.047549502495
0	598	29.9	0.047549502495
0	600	30	0.047549502495
0	602	30.1	0.047549502495
0	604	30.2	0.047549502495
0	605	30.257790013	0.047549502495
0	606	30.3	0.047549502495
0	608	30.4	0.047549502495
0	610	30.5	0.047549502495
0	612	30.6	0.047549502495
0	614	30.7	0.047549502495
0	615	30.782708779	0.047549502495
0	616	30.8	0.04707400747005
0	616	30.8	0.04707400747005
0	618	30.9	0.04707400747005
0	620	31	0.04707400747005
0	622	31.1	0.04707400747005
0	624	31.2	0.04707400747005
0	625	31.235602525	0.04707400747005
0	626	31.3	0.04707400747005
0	628	31.4	0.04707400747005
0	630	31.5	0.04707400747005
0	632	31.6	0.04707400747005
0	633	31.674189313	0.04707400747005
0	634	31.7	0.04707400747005
0	636	31.8	0.04707400747005
0	638	31.9	0.04707400747005
0	640	32	0.04707400747005
0	642	32.1	0.04707400747005
0	643	32.147928244	0.04707400747005
0	644	32.2	0.04660326739535
0	644	32.2	0.04660326739535
0	646	32.3	0.04660326739535
0	648	32.4	0.04660326739535
0	650	32.5	0.04660326739535
0	652	32.6	0.04660326739535
0	653	32.612828557	0.04660326739535
0	654	32.7	0.04660326739535
0	656	32.8	0.04660326739535
0	658	32.9	0.04660326739535
0	660	33	0.04660326739535
0	662	33.1	0.04660326739535
0	664	33.2	0.04660326739535
0	666	33.3	0.04660326739535
0	667	33.304375057	0.04660326739535
0	668	33.4	0.04660326739535
0	670	33.5	0.04660326739535
0	672	33.6	0.04660326739535
0	674	33.7	0.046137234721396
0	674	33.7	0.046137234721396
0	676	33.8	0.046137234721396
0	678	33.9	0.046137234721396
0	680	34	0.046137234721396
0	681	34.008580399	0.046137234721396
0	682	34.1	0.046137234721396
0	684	34.2	0.046137234721396
0	686	34.3	0.046137234721396
0	688	34.4	0.046137234721396
0	690	34.5	0.046137234721396
0	692	34.6	0.046137234721396
0	694	34.7	0.046137234721396
0	695	34.7348164	0.046137234721396
0	696	34.8	0.046137234721396
0	698	34.9	0.046137234721396
0	700	35	0.046137234721396
0	702	35.1	0.046137234721396
0	704	35.2	0.045675862374182
0	704	35.2	0.045675862374182
0	706	35.3	0.045675862374182
0	708	35.4	0.045675862374182
0	709	35.451981469	0.045675862374182
0	710	35.5	0.045675862374182
0	712	35.6	0.045675862374182
0	714	35.7	0.045675862374182
0	716	35.8	0.045675862374182
0	718	35.9	0.045675862374182
0	719	35.904018652	0.045675862374182
0	720	36	0.045675862374182
0	722	36.1	0.045675862374182
0	724	36.154769628164	0.045675862374182
0	725	36.2	0.045856783861526
0	727	36.235804034618	0.046
0	728	36.3	0.046256783861528
0	730	36.360804034618	0.0465
0	731	36.4	0.046656783861528
0	732	36.403507894	0.046670815437528
0	733	36.485804034618	0.047
0	734	36.5	0.047056783861528
0	736	36.6	0.047456783861528
0	738	36.610804034618	0.0475
0	739	36.7	0.047856783861528
0	741	36.735804034618	0.048
0	742	36.8	0.048256783861528
0	744	36.860804034618	0.0485
0	744	36.868647496	0.048531373845528
0	745	36.9	0.048656783861528
0	747	36.985804034618	0.049
0	748	37	0.049056783861528
0	750	37.1	0.049456783861528
0	752	37.110804034618	0.0495
0	753	37.2	0.049856783861528
0	755	37.235804034618	0.05
0	756	37.3	0.05
0	757	37.375955743	0.05
0	758	37.4	0.05
0	760	37.5	0.05
0	762	37.6	0.0495
0	762	37.6	0.0495
0	764	37.7	0.0499
0	766	37.8	0.05
0	767	37.880497633	0.05
0	768	37.9	0.05
0	770	38	0.05
0	772	38.1	0.05
0	773	38.171286154	0.05
0	774	38.2	0.05
0	776	38.3	0.05
0	778	38.4	0.05
0	780	38.5	0.05
0	782	38.6	0.05
0	783	38.65063429	0.05
0	784	38.7	0.05
0	786	38.8	0.05
0	788	38.9	0.05
0	790	39	0.0495
0	790	39	0.0495
0	792	39.1	0.0499
0	794	39.2	0.05
0	796	39.3	0.05
0	797	39.303595876	0.05
0	798	39.4	0.05
0	800	39.5	0.05
0	802	39.6	0.05
0	804	39.7	0.05
0	806	39.8	0.05
0	807	39.88524217	0.05
0	808	39.9	0.05
0	810	40	0.05
0	812	40.1	0.05
0	814	40.2	0.05
0	816	40.3	0.05
0	817	40.375983499	0.05
0	818	40.4	0.0495
0	818	40.4	0.0495
0	820	40.5	0.0499
0	822	40.6	0.05
0	824	40.7	0.05
0	826	40.8	0.05
0	828	40.9	0.05
0	829	40.993990024	0.05
0	830	41	0.05
0	832	41.1	0.05
0	834	41.2	0.05
0	836	41.3	0.05
0	838	41.4	0.05
0	840	41.5	0.05
0	841	41.586967633	0.05
0	842	41.6	0.05
0	844	41.7	0.05
0	846	41.8	0.05
0	848	41.9	0.0495
0	848	41.9	0.0495
0	850	42	0.0499
0	851	42.025205761	0.05
0	852	42.1	0.05
0	854	42.2	0.05
0	856	42.3	0.05
0	858	42.4	0.05
0	860	42.5	0.05
0	861	42.539892193	0.05
0	862	42.6	0.05
0	864	42.7	0.05
0	866	42.8	0.05
0	868	42.9	0.05
0	870	43	0.05
0	871	43.083867376	0.05
0	872	43.1	0.05
0	874	43.2	0.05
0	876	43.3	0.0495
0	876	43.3	0.0495
0	878	43.4	0.0499
0	880	43.5	0.05
0	882	43.6	0.05
0	883	43.69097164	0.05
0	884	43.7	0.05
0	886	43.8	0.05
0	888	43.9	0.05
0	890	44	0.05
0	891	44.097162964	0.05
0	892	44.1	0.05
0	894	44.2	0.05
0	896	44.3	0.05
0	898	44.4	0.05
0	900	44.5	0.05
0	902	44.6	0.05
0	903	44.640002869	0.05
0	904	44.7	0.0495
0	904	44.7	0.0495
0	906	44.8	0.0499
0	908	44.9	0.05
0	910	45	0.05
0	912	45.1	0.05
0	913	45.15623842	0.05
0	914	45.2	0.05
0	916	45.3	0.05
0	918	45.4	0.05
0	920	45.5	0.05
0	922	45.6	0.05
0	923	45.661916164	0.05
0	924	45.7	0.05
0	926	45.8	0.05
0	928	45.9	0.05
0	930	46	0.05
0	932	46.1	0.05
0	933	46.157896765	0.0495
0	933	46.157896765	0.0495
0	934	46.2	0.04966841294
0	936	46.3	0.05
0	938	46.4	0.05
0	940	46.5	0.05
0	942	46.6	0.05
0	943	46.645354489	0.05
0	944	46.7	0.05
0	946	46.8	0.05
0	948	46.9	0.05
0	951	47	0.05
0	953	47.1	0.05
0	954	47.146966351	0.05
0	955	47.2	0.05
0	957	47.3	0.05
0	959	47.4	0.05
0	961	47.5	0.05
0	963	47.6	0.05
0	964	47.681233933	0.05
0	965	47.7	0.05
0	967	47.8	0.05
0	969	47.9	0.05
0	971	48	0.05
0	973	48.1	0.05
0	975	48.2	0.05
0	976	48.229581562	0.05
0	977	48.3	0.05
0	979	48.4	0.05
0	981	48.5	0.05
0	983	48.6	0.05
0	984	48.683513614	0.05
0	985	48.7	0.05
0	987	48.8	0.05
0	989	48.9	0.05
0	991	49	0.05
0	993	49.1	0.05
0	995	49.2	0.05
0	996	49.257231463	0.05
0	997	49.3	0.05
0	999	49.4	0.05
0	1001	49.5	0.05
0	1003	49.6	0.05
0	1005	49.7	0.05
0	1006	49.705997812	0.05
0	1007	49.8	0.05
0	1009	49.9	0.05
0	1011	50	0.05
0	1013	50.1	0.05
0	1014	50.157275575	0.05
0	1015	50.2	0.05
0	1017	50.3	0.05
0	1019	50.4	0.05
0	1021	50.5	0.05
0	1023	50.6	0.05
0	1024	50.680115077	0.05
0	1026	50.7	0.05
0	1028	50.8	0.05
0	1030	50.9	0.05
0	1032	51	0.05
0	1034	51.1	0.05
0	1034	51.15759286	0.05
0	1036	51.2	0.05
0	1038	51.3	0.05
0	1040	51.4	0.05
0	1042	51.5	0.05
0	1044	51.6	0.05
0	1044	51.682843531	0.05
0	1046	51.7	0.0495
0	1046	51.7	0.0495
0	1048	51.8	0.0499
0	1050	51.9	0.05
0	1052	52	0.05
0	1054	52.1	0.05
0	1056	52.2	0.05
0	1057	52.298004373	0.05
0	1058	52.3	0.05
0	1060	52.4	0.05
0	1062	52.5	0.05
0	1064	52.6	0.05
0	1066	52.7	0.05
0	1066	52.744528171	0.05
0	1068	52.8	0.05
0	1070	52.9	0.05
0	1072	53	0.05
0	1074	53.1	0.05
0	1076	53.2	0.0495
0	1076	53.2	0.0495
0	1078	53.3	0.0499
0	1078	53.301403627	0.049905614508
0	1080	53.4	0.05
0	1082	53.5	0.05
0	1084	53.6	0.05
0	1086	53.7	0.05
0	1088	53.8	0.05
0	1088	53.822370463	0.05
0	1090	53.9	0.05
0	1092	54	0.05
0	1094	54.1	0.05
0	1096	54.2	0.05
0	1098	54.3	0.05
0	1098	54.31864024	0.05
0	1100	54.4	0.05
0	1102	54.5	0.05
0	1104	54.6	0.0495
0	1104	54.6	0.0495
0	1106	54.7	0.0499
0	1108	54.8	0.05
0	1108	54.879549283	0.05
0	1110	54.9	0.05
0	1112	55	0.05
0	1114	55.1	0.05
0	1116	55.2	0.05
0	1118	55.3	0.05
0	1118	55.341209263	0.05
0	1120	55.4	0.05
0	1122	55.5	0.05
0	1124	55.6	0.05
0	1126	55.7	0.05
0	1128	55.8	0.05
0	1128	55.868495773	0.05
0	1130	55.9	0.05
0	1132	56	0.0495
0	1132	56	0.0495
0	1134	56.1	0.0499
0	1136	56.2	0.05
0	1138	56.3	0.05
0	1140	56.4	0.05
0	1140	56.409372577	0.05
0	1142	56.5	0.05
0	1144	56.6	0.05
0	1146	56.7	0.05
0	1147	56.769634267061	0.05
0	1148	56.845244149	0.05
0	1149	56.869634267061	0.05
0	1151	56.969634267061	0.05
0	1153	57.069634267061	0.05
0	1155	57.169634267061	0.05
0	1157	57.269634267061	0.05
0	1158	57.344431537	0.05
0	1159	57.369634267061	0.05
0	1161	57.469634267061	0.05
0	1163	57.569634267061	0.05
0	1165	57.669634267061	0.05
0	1167	57.769634267061	0.05
0	1168	57.824959243	0.05
0	1169	57.869634267061	0.05
0	1171	57.969634267061	0.05
0	1173	58.069634267061	0.05
0	1175	58.169634267061	0.05
0	1177	58.269634267061	0.05
0	1178	58.368431602	0.05
0	1179	58.369634267061	0.05
0	1181	58.469634267061	0.05
0	1183	58.569634267061	0.05
0	1185	58.669634267061	0.05
0	1187	58.769634267061	0.05
0	1188	58.823505505	0.05
0	1189	58.869634267061	0.05
0	1191	58.969634267061	0.05
0	1193	59.069634267061	0.05
0	1195	59.169634267061	0.05
0	1197	59.269634267061	0.05
0	1198	59.319263842	0.05
0	1199	59.369634267061	0.05
0	1201	59.469634267061	0.05
0	1203	59.569634267061	0.05
0	1205	59.669634267061	0.05
0	1207	59.769634267061	0.05
0	1208	59.80466044	0.05
0	1209	59.869634267061	0.05
0	1211	59.969634267061	0.05
0	1213	60.069634267061	0.05
0	1215	60.169634267061	0.05
0	1216	60.259807318	0.05
0	1217	60.269634267061	0.05
0	1219	60.369634267061	0.05
0	1221	60.469634267061	0.05
0	1223	60.569634267061	0.05
0	1225	60.669634267061	0.05
0	1226	60.75670921	0.05
0	1227	60.769634267061	0.05
0	1229	60.869634267061	0.05
0	1231	60.969634267061	0.05
0	1233	61.069634267061	0.05
0	1235	61.087242732334	0.05
0	1236	61.169634267061	0.05
0	1237	61.231319383	0.05
0	1238	61.269634267061	0.05
0	1240	61.369634267061	0.05
0	1242	61.469634267061	0.05
0	1244	61.569634267061	0.05
0	1246	61.669634267061	0.0495
0	1246	61.669634267061	0.0495
0	1248	61.769634267061	0.0495
0	1249	61.86525865	0.0495
0	1250	61.869634267061	0.0495
0	1252	61.969634267061	0.0495
0	1254	62.069634267061	0.0495
0	1256	62.169634267061	0.0495
0	1258	62.269634267061	0.0495
0	1260	62.369634267061	0.0495
0	1262	62.469634267061	0.0495
0	1262	62.482641004	0.0495
0	1264	62.569634267061	0.0495
0	1266	62.669634267061	0.0495
0	1268	62.769634267061	0.0495
0	1270	62.869634267061	0.0495
0	1271	62.956902895	0.0495
0	1272	62.969634267061	0.0495
0	1274	63.069634267061	0.049005
0	1274	63.069634267061	0.049005
0	1276	63.169634267061	0.049005
0	1278	63.269634267061	0.049005
0	1280	63.369634267061	0.049005
0	1282	63.469634267061	0.049005
0	1282	63.473095921	0.049005
0	1284	63.569634267061	0.049005
0	1286	63.669634267061	0.049005
0	1288	63.769634267061	0.049005
0	1290	63.869634267061	0.049005
0	1291	63.927248851	0.049005
0	1292	63.969634267061	0.049005
0	1294	64.069634267061	0.049005
0	1296	64.169634267061	0.049005
0	1298	64.269634267061	0.049005
0	1300	64.369634267061	0.049005
0	1301	64.424412523	0.049005
0	1302	64.469634267061	0.04851495
0	1302	64.469634267061	0.04851495
0	1304	64.569634267061	0.04851495
0	1306	64.669634267061	0.04851495
0	1308	64.769634267061	0.04851495
0	1310	64.869634267061	0.04851495
0	1312	64.969634267061	0.04851495
0	1313	65.015636263	0.04851495
0	1314	65.069634267061	0.04851495
0	1316	65.169634267061	0.04851495
0	1318	65.269634267061	0.04851495
0	1320	65.369634267061	0.04851495
0	1322	65.469634267061	0.04851495
0	1323	65.568609454	0.04851495
0	1324	65.569634267061	0.04851495
0	1326	65.669634267061	0.04851495
0	1328	65.769634267061	0.04851495
0	1330	65.869634267061	0.04851495
0	1332	65.969634267061	0.0480298005
0	1332	65.969634267061	0.0480298005
0	1334	66.069634267061	0.0480298005
0	1335	66.109389925	0.0480298005
0	1336	66.169634267061	0.0480298005
0	1338	66.269634267061	0.0480298005
0	1340	66.369634267061	0.0480298005
0	1342	66.469634267061	0.0480298005
0	1344	66.569634267061	0.0480298005
0	1346	66.669634267061	0.0480298005
0	1347	66.747988576	0.0480298005
0	1348	66.769634267061	0.0480298005
0	1350	66.869634267061	0.0480298005
0	1352	66.969634267061	0.0480298005
0	1354	67.069634267061	0.0480298005
0	1356	67.169634267061	0.0480298005
0	1358	67.269634267061	0.0480298005
0	1360	67.369634267061	0.0480298005
0	1362	67.469634267061	0.047549502495
0	1362	67.469634267061	0.047549502495
0	1362	67.483603903	0.047549502495
0	1364	67.569634267061	0.047549502495
0	1366	67.669634267061	0.047549502495
0	1368	67.769634267061	0.047549502495
0	1370	67.869634267061	0.047549502495
0	1372	67.969634267061	0.047549502495
0	1374	68.069634267061	0.047549502495
0	1376	68.169634267061	0.047549502495
0	1377	68.221934032	0.047549502495
0	1378	68.269634267061	0.047549502495
0	1380	68.369634267061	0.047549502495
0	1382	68.469634267061	0.047549502495
0	1384	68.569634267061	0.047549502495
0	1386	68.669634267061	0.047549502495
0	1387	68.723824267	0.047549502495
0	1388	68.769634267061	0.047549502495
0	1390	68.869634267061	0.04707400747005
0	1390	68.869634267061	0.04707400747005
0	1392	68.969634267061	0.04707400747005
0	1394	69.069634267061	0.04707400747005
0	1396	69.169634267061	0.04707400747005
0	1397	69.257775187	0.04707400747005
0	1398	69.269634267061	0.04707400747005
0	1400	69.369634267061	0.04707400747005
0	1402	69.469634267061	0.04707400747005
0	1404	69.569634267061	0.04707400747005
0	1406	69.669634267061	0.04707400747005
0	1408	69.769634267061	0.04707400747005
0	1410	69.869634267061	0.04707400747005
0	1412	69.969634267061	0.04707400747005
0	1413	69.995464216	0.04707400747005
0	1414	70.069634267061	0.04707400747005
0	1416	70.169634267061	0.04707400747005
0	1418	70.269634267061	0.04707400747005
0	1420	70.369634267061	0.04660326739535
0	1420	70.369634267061	0.04660326739535
0	1422	70.469634267061	0.04660326739535
0	1424	70.569634267061	0.04660326739535
0	1426	70.669634267061	0.04660326739535
0	1427	70.744971001	0.04660326739535
0	1428	70.769634267061	0.04660326739535
0	1430	70.869634267061	0.04660326739535
0	1432	70.969634267061	0.04660326739535
0	1434	71.069634267061	0.04660326739535
0	1436	71.169634267061	0.04660326739535
0	1438	71.269634267061	0.04660326739535
0	1440	71.327921734366	0.04660326739535
0	1441	71.369634267061	0.04677011752613
0	1442	71.401195093	0.046896360829886
0	1443	71.427104885529	0.047
0	1444	71.469634267061	0.047170117526128
0	1446	71.552104885529	0.0475
0	1447	71.569634267061	0.047570117526128
0	1449	71.669634267061	0.047970117526128
0	1450	71.677104885529	0.04752
0	1450	71.677104885529	0.04752
0	1452	71.769634267061	0.047890117526128
0	1454	71.797104885529	0.048
0	1455	71.869634267061	0.048290117526128
0	1457	71.922104885529	0.0485
0	1458	71.969634267061	0.048690117526128
0	1459	71.998051033	0.048803784589884
0	1460	72.047104885529	0.049
0	1461	72.069634267061	0.049090117526128
0	1463	72.169634267061	0.049490117526128
0	1464	72.172104885529	0.0495
0	1466	72.269634267061	0.049890117526128
0	1468	72.297104885529	0.05
0	1469	72.369634267061	0.05
0	1471	72.469634267061	0.05
0	1473	72.569634267061	0.05
0	1474	72.602823727	0.05
0	1475	72.669634267061	0.05
0	1477	72.769634267061	0.05
0	1479	72.869634267061	0.05
0	1480	72.893152549	0.05
0	1481	72.969634267061	0.05
0	1483	73.069634267061	0.05
0	1485	73.169634267061	0.05
0	1487	73.269634267061	0.05
0	1488	73.329619027	0.05
0	1489	73.369634267061	0.05
0	1491	73.469634267061	0.05
0	1493	73.569634267061	0.05
0	1495	73.669634267061	0.05
0	1496	73.767107224	0.05
0	1497	73.769634267061	0.05
0	1499	73.869634267061	0.05
0	1501	73.969634267061	0.05
0	1503	74.069634267061	0.05
0	1505	74.169634267061	0.05
0	1507	74.269634267061	0.05
0	1507	74.275557196	0.0495
0	1507	74.275557196	0.0495
0	1509	74.369634267061	0.049876308284244
0	1511	74.469634267061	0.05
0	1513	74.569634267061	0.05
0	1515	74.669634267061	0.05
0	1516	74.708557192	0.05
0	1517	74.769634267061	0.05
0	1519	74.869634267061	0.05
0	1521	74.969634267061	0.05
0	1523	75.069634267061	0.05
0	1524	75.13201255	0.05
0	1525	75.169634267061	0.05
0	1527	75.269634267061	0.05
0	1529	75.369634267061	0.05
0	1530	75.430561204	0.05
0	1531	75.469634267061	0.05
0	1533	75.569634267061	0.05
0	1535	75.669634267061	0.05
0	1537	75.769634267061	0.05
0	1539	75.869634267061	0.05
0	1540	75.90086953	0.05
0	1541	75.969634267061	0.05
0	1543	76.069634267061	0.05
0	1545	76.169634267061	0.05
0	1547	76.269634267061	0.05
0	1549	76.369634267061	0.05
0	1550	76.421708701	0.05
0	1551	76.469634267061	0.05
0	1553	76.569634267061	0.05
0	1555	76.669634267061	0.05
0	1557	76.769634267061	0.05
0	1558	76.867787644	0.05
0	1559	76.869634267061	0.05
0	1561	76.969634267061	0.05
0	1563	77.069634267061	0.05
0	1565	77.169634267061	0.05
0	1567	77.269634267061	0.05
0	1568	77.31031297	0.05
0	1569	77.369634267061	0.05
0	1571	77.469634267061	0.05
0	1573	77.569634267061	0.05
0	1575	77.669634267061	0.05
0	1577	77.769634267061	0.05
0	1579	77.869634267061	0.05
0	1580	77.924793019	0.05
0	1581	77.969634267061	0.05
0	1583	78.069634267061	0.05
0	1585	78.169634267061	0.05
0	1587	78.269634267061	0.05
0	1589	78.369634267061	0.05
0	1591	78.469634267061	0.05
0	1592	78.502569682	0.05
0	1593	78.569634267061	0.05
0	1595	78.669634267061	0.05
0	1597	78.769634267061	0.05
0	1599	78.869634267061	0.05
0	1600	78.961154614	0.05
0	1601	78.969634267061	0.05
0	1603	79.069634267061	0.05
0	1605	79.169634267061	0.05
0	1607	79.269634267061	0.05
0	1609	79.369634267061	0.05
0	1611	79.469634267061	0.05
0	1613	79.569634267061	0.05
0	1613	79.578534208	0.05
0	1615	79.669634267061	0.05
0	1617	79.769634267061	0.05
0	1619	79.869634267061	0.05
0	1621	79.969634267061	0.05
0	1623	80.069634267061	0.05
0	1625	80.169634267061	0.05
0	1626	80.210946094	0.05
0	1627	80.269634267061	0.05
0	1629	80.369634267061	0.05
0	1631	80.469634267061	0.05
0	1633	80.569634267061	0.05
0	1635	80.669634267061	0.05
0	1637	80.769634267061	0.05
0	1637	80.772367402	0.05
0	1639	80.869634267061	0.05
0	1641	80.969634267061	0.05
0	1643	81.069634267061	0.05
0	1645	81.169634267061	0.05
0	1647	81.269634267061	0.05
0	1648	81.289790794	0.05
0	1649	81.369634267061	0.05
0	1651	81.469634267061	0.05
0	1653	81.569634267061	0.05
0	1655	81.669634267061	0.05
0	1657	81.769634267061	0.05
0	1658	81.833964985	0.05
0	1659	81.869634267061	0.05
0	1661	81.969634267061	0.05
0	1663	82.069634267061	0.05
0	1665	82.169634267061	0.05
0	1667	82.269634267061	0.05
0	1669	82.369634267061	0.05
0	1670	82.411678669	0.05
0	1671	82.469634267061	0.05
0	1673	82.569634267061	0.05
0	1675	82.669634267061	0.05
0	1677	82.769634267061	0.05
0	1679	82.869634267061	0.05
0	1681	82.969634267061	0.05
0	1682	83.015656279	0.05
0	1683	83.069634267061	0.05
0	1685	83.117814745624	0.05
0	1686	83.169634267061	0.05
0	1688	83.269634267061	0.05
0	1690	83.369634267061	0.05
0	1692	83.469634267061	0.05
0	1693	83.514423397	0.05
0	1694	83.569634267061	0.05
0	1696	83.669634267061	0.05
0	1698	83.769634267061	0.05
0	1700	83.869634267061	0.05
0	1702	83.969634267061	0.05
0	1703	84.065533903	0.05
0	1704	84.069634267061	0.05
0	1706	84.169634267061	0.0495
0	1706	84.169634267061	0.0495
0	1708	84.269634267061	0.0495
0	1710	84.369634267061	0.0495
0	1712	84.469634267061	0.0495
0	1713	84.534474604	0.0495
0	1714	84.569634267061	0.0495
0	1716	84.669634267061	0.0495
0	1718	84.769634267061	0.0495
0	1720	84.869634267061	0.0495
0	1722	84.969634267061	0.0495
0	1723	85.040345653	0.0495
0	1724	85.069634267061	0.0495
0	1726	85.169634267061	0.0495
0	1728	85.269634267061	0.0495
0	1730	85.369634267061	0.0495
0	1732	85.469634267061	0.0495
0	1734	85.569634267061	0.0495
0	1734	85.58068966	0.0495
0	1736	85.669634267061	0.0495
0	1738	85.769634267061	0.0495
0	1740	85.869634267061	0.0495
0	1742	85.969634267061	0.0495
0	1743	86.057208571	0.0495
0	1744	86.069634267061	0.0495
0	1746	86.169634267061	0.0495
0	1748	86.269634267061	0.0495
0	1750	86.369634267061	0.0495
0	1752	86.469634267061	0.0495
0	1753	86.54480239	0.0495
0	1754	86.569634267061	0.0495
0	1756	86.669634267061	0.0495
0	1758	86.769634267061	0.0495
0	1760	86.869634267061	0.0495
0	1762	86.969634267061	0.0495
0	1763	87.016008256	0.049005
0	1763	87.016008256	0.049005
0	1764	87.069634267061	0.049005
0	1766	87.169634267061	0.049005
0	1768	87.269634267061	0.049005
0	1770	87.369634267061	0.049005
0	1772	87.469634267061	0.049005
0	1773	87.554449069	0.049005
0	1774	87.569634267061	0.049005
0	1776	87.669634267061	0.049005
0	1778	87.769634267061	0.049005
0	1780	87.869634267061	0.049005
0	1782	87.969634267061	0.049005
0	1783	88.063044157	0.049005
0	1784	88.069634267061	0.049005
0	1786	88.169634267061	0.049005
0	1788	88.269634267061	0.049005
0	1790	88.369634267061	0.049005
0	1792	88.469634267061	0.04851495
0	1792	88.469634267061	0.04851495
0	1794	88.569634267061	0.04851495
0	1795	88.643474461	0.04851495
0	1796	88.669634267061	0.04851495
0	1798	88.769634267061	0.04851495
0	1800	88.869634267061	0.04851495
0	1802	88.969634267061	0.04851495
0	1804	89.069634267061	0.04851495
0	1805	89.162960023	0.04851495
0	1806	89.169634267061	0.04851495
0	1808	89.269634267061	0.04851495
0	1810	89.369634267061	0.04851495
0	1812	89.469634267061	0.04851495
0	1814	89.569634267061	0.04851495
0	1815	89.661392146	0.04851495
0	1816	89.669634267061	0.04851495
0	1818	89.769634267061	0.04851495
0	1820	89.869634267061	0.0480298005
0	1820	89.869634267061	0.0480298005
0	1822	89.969634267061	0.0480298005
0	1824	90.069634267061	0.0480298005
0	1825	90.113033152	0.0480298005
0	1826	90.169634267061	0.0480298005
0	1828	90.269634267061	0.0480298005
0	1830	90.369634267061	0.0480298005
0	1832	90.469634267061	0.0480298005
0	1834	90.569634267061	0.0480298005
0	1835	90.633479107	0.0480298005
0	1836	90.669634267061	0.0480298005
0	1838	90.769634267061	0.0480298005
0	1840	90.869634267061	0.0480298005
0	1842	90.969634267061	0.0480298005
0	1844	91.069634267061	0.0480298005
0	1845	91.139686684	0.0480298005
0	1846	91.169634267061	0.0480298005
0	1848	91.269634267061	0.047549502495
0	1848	91.269634267061	0.047549502495
0	1850	91.369634267061	0.047549502495
0	1852	91.469634267061	0.047549502495
0	1854	91.569634267061	0.047549502495
0	1855	91.608415366	0.047549502495
0	1856	91.669634267061	0.047549502495
0	1858	91.769634267061	0.047549502495
0	1860	91.869634267061	0.047549502495
0	1862	91.969634267061	0.047549502495
0	1864	92.069634267061	0.047549502495
0	1865	92.157772618	0.047549502495
0	1866	92.169634267061	0.047549502495
0	1868	92.269634267061	0.047549502495
0	1870	92.369634267061	0.047549502495
0	1872	92.469634267061	0.047549502495
0	1874	92.569634267061	0.047549502495
0	1875	92.663602387	0.047549502495
0	1876	92.669634267061	0.04707400747005
0	1876	92.669634267061	0.04707400747005
0	1878	92.769634267061	0.04707400747005
0	1880	92.869634267061	0.04707400747005
0	1882	92.969634267061	0.04707400747005
0	1884	93.069634267061	0.04707400747005
0	1885	93.168868606	0.04707400747005
0	1886	93.169634267061	0.04707400747005
0	1888	93.269634267061	0.04707400747005
0	1890	93.369634267061	0.04707400747005
0	1892	93.469634267061	0.04707400747005
0	1894	93.569634267061	0.04707400747005
0	1896	93.669634267061	0.04707400747005
0	1898	93.769634267061	0.04707400747005
0	1899	93.808994362	0.04707400747005
0	1900	93.869634267061	0.04707400747005
0	1902	93.969634267061	0.04707400747005
0	1904	94.069634267061	0.04707400747005
0	1906	94.169634267061	0.04660326739535
0	1906	94.169634267061	0.04660326739535
0	1908	94.269634267061	0.04660326739535
0	1910	94.369634267061	0.04660326739535
0	1911	94.405160674	0.04660326739535
0	1912	94.469634267061	0.04660326739535
0	1914	94.569634267061	0.04660326739535
0	1916	94.669634267061	0.04660326739535
0	1918	94.769634267061	0.04660326739535
0	1920	94.869634267061	0.04660326739535
0	1922	94.969634267061	0.04660326739535
0	1923	95.002510861	0.04660326739535
0	1924	95.069634267061	0.04660326739535
0	1926	95.169634267061	0.04660326739535
0	1928	95.269634267061	0.04660326739535
0	1930	95.369634267061	0.04660326739535
0	1932	95.469634267061	0.04660326739535
0	1933	95.491681678	0.04660326739535
0	1934	95.569634267061	0.046137234721396
0	1934	95.569634267061	0.046137234721396
0	1936	95.669634267061	0.046137234721396
0	1938	95.769634267061	0.046137234721396
0	1940	95.869634267061	0.046137234721396
0	1942	95.969634267061	0.046137234721396
0	1943	95.988710134	0.046137234721396
0	1944	96.069634267061	0.046137234721396
0	1946	96.169634267061	0.046137234721396
0	1948	96.269634267061	0.046137234721396
0	1950	96.369634267061	0.046137234721396
0	1951	96.430882108	0.046137234721396
0	1952	96.469634267061	0.046137234721396
0	1954	96.569634267061	0.046137234721396
0	1956	96.669634267061	0.046137234721396
0	1958	96.769634267061	0.046137234721396
0	1960	96.869634267061	0.046137234721396
0	1962	96.969634267061	0.046137234721396
0	1963	97.014881887	0.045675862374182
0	1963	97.014881887	0.045675862374182
0	1964	97.069634267061	0.045675862374182
0	1966	97.169634267061	0.045675862374182
0	1968	97.269634267061	0.045675862374182
0	1970	97.369634267061	0.045675862374182
0	1972	97.469634267061	0.045675862374182
0	1974	97.569634267061	0.045675862374182
0	1975	97.650301978	0.045675862374182
0	1976	97.669634267061	0.045675862374182
0	1978	97.769634267061	0.045675862374182
0	1980	97.869634267061	0.045675862374182
0	1982	97.969634267061	0.045675862374182
0	1984	98.069634267061	0.045675862374182
0	1986	98.169634267061	0.045675862374182
0	1988	98.269634267061	0.045675862374182
0	1990	98.369634267061	0.045675862374182
0	1991	98.402875426	0.045675862374182
0	1992	98.469634267061	0.04521910375044
0	1992	98.469634267061	0.04521910375044
0	1994	98.569634267061	0.04521910375044
0	1996	98.669634267061	0.04521910375044
0	1998	98.769634267061	0.04521910375044
0	2000	98.869634267061	0.04521910375044
0	2002	98.969634267061	0.04521910375044
0	2003	99.01185268	0.04521910375044
0	2004	99.069634267061	0.04521910375044
0	2006	99.169634267061	0.04521910375044
0	2008	99.269634267061	0.04521910375044
0	2010	99.369634267061	0.04521910375044
0	2011	99.468212575	0.04521910375044
0	2012	99.469634267061	0.04521910375044
0	2014	99.569634267061	0.04521910375044
0	2016	99.669634267061	0.04521910375044
0	2018	99.769634267061	0.04521910375044
0	2020	99.869634267061	0.04521910375044
0	2021	99.961932481	0.044766912712936
0	2021	99.961932481	0.044766912712936
0	2022	99.969634267061	0.044766912712936
0	2024	100.069634267061	0.044766912712936
0	2026	100.169634267061	0.044766912712936
0	2028	100.269634267061	0.044766912712936
0	2030	100.369634267061	0.044766912712936
0	2031	100.425950455	0.044766912712936
0	2032	100.469634267061	0.044766912712936
0	2034	100.569634267061	0.044766912712936
0	2036	100.669634267061	0.044766912712936
0	2038	100.769634267061	0.044766912712936
0	2040	100.869634267061	0.044766912712936
0	2042	100.969634267061	0.044766912712936
0	2042	100.971066841	0.044766912712936
0	2044	101.069634267061	0.044766912712936
0	2046	101.169634267061	0.044766912712936
0	2048	101.269634267061	0.044766912712936
0	2050	101.369634267061	0.044319243585806
0	2050	101.369634267061	0.044319243585806
0	2052	101.469634267061	0.044319243585806
0	2053	101.493796195	0.044319243585806
0	2054	101.569634267061	0.044319243585806
0	2056	101.669634267061	0.044319243585806
0	2058	101.769634267061	0.044319243585806
0	2060	101.869634267061	0.044319243585806
0	2061	101.934365875	0.044319243585806
0	2062	101.969634267061	0.044319243585806
0	2064	102.069634267061	0.044319243585806
0	2066	102.169634267061	0.044319243585806
0	2068	102.269634267061	0.044319243585806
0	2070	102.369634267061	0.044319243585806
0	2071	102.399707977	0.044319243585806
0	2072	102.469634267061	0.044319243585806
0	2074	102.569634267061	0.044319243585806
0	2076	102.669634267061	0.044319243585806
0	2078	102.769634267061	0.043876051149948
0	2078	102.769634267061	0.043876051149948
0	2080	102.869634267061	0.043876051149948
0	2081	102.917061784	0.043876051149948
0	2082	102.969634267061	0.043876051149948
0	2084	103.069634267061	0.043876051149948
0	2086	103.169634267061	0.043876051149948
0	2088	103.269634267061	0.043876051149948
0	2089	103.353092017	0.043876051149948
0	2090	103.369634267061	0.043876051149948
0	2092	103.469634267061	0.043876051149948
0	2094	103.569634267061	0.043876051149948
0	2096	103.669634267061	0.043876051149948
0	2098	103.769634267061	0.043876051149948
0	2100	103.869634267061	0.043876051149948
0	2100	103.87688476	0.043876051149948
0	2102	103.969634267061	0.043876051149948
0	2104	104.069634267061	0.043876051149948
0	2106	104.169634267061	0.043437290638449
0	2106	104.169634267061	0.043437290638449
0	2108	104.269634267061	0.043437290638449
0	2110	104.369634267061	0.043437290638449
0	2112	104.469634267061	0.043437290638449
0	2114	104.569634267061	0.043437290638449
0	2116	104.669634267061	0.043437290638449
0	2117	104.766381391	0.043437290638449
0	2118	104.769634267061	0.043437290638449
0	2120	104.869634267061	0.043437290638449
0	2122	104.969634267061	0.043437290638449
0	2124	105.069634267061	0.043437290638449
0	2126	105.169634267061	0.043437290638449
0	2128	105.269634267061	0.043437290638449
0	2130	105.369634267061	0.043437290638449
0	2132	105.469634267061	0.043437290638449
0	2134	105.569634267061	0.043437290638449
0	2134	105.57330034	0.043437290638449
0	2136	105.669634267061	0.043002917732064
0	2136	105.669634267061	0.043002917732064
0	2138	105.769634267061	0.043002917732064
0	2140	105.869634267061	0.043002917732064
0	2142	105.969634267061	0.043002917732064
0	2144	106.069634267061	0.043002917732064
0	2146	106.169634267061	0.043002917732064
0	2147	106.200187366	0.043002917732064
0	2148	106.269634267061	0.043002917732064
0	2150	106.369634267061	0.043002917732064
0	2152	106.469634267061	0.043002917732064
0	2156	106.569634267061	0.043002917732064
0	2158	106.669634267061	0.043002917732064
0	2160	106.70171566	0.043002917732064
0	2161	106.769634267061	0.043002917732064
0	2164	106.869634267061	0.043002917732064
0	2167	106.969634267061	0.043002917732064
0	2170	107.069634267061	0.043002917732064
0	2171	107.155946506	0.043002917732064
0	2172	107.169634267061	0.043002917732064
0	2175	107.269634267061	0.043002917732064
0	2178	107.369634267061	0.043002917732064
0	2179	107.405662018	0.043002917732064
0	2181	107.469634267061	0.043002917732064
0	2184	107.569634267061	0.043002917732064
0	2186	107.669634267061	0.043002917732064
0	2189	107.769634267061	0.043002917732064
0	2192	107.869634267061	0.043002917732064
0	2194	107.94594784	0.043002917732064
0	2195	107.969634267061	0.043002917732064
0	2198	108.069634267061	0.043002917732064
0	2200	108.169634267061	0.043002917732064
0	2203	108.269634267061	0.043002917732064
0	2206	108.369634267061	0.043002917732064
0	2208	108.469634267061	0.043002917732064
0	2208	108.480531064	0.043002917732064
0	2210	108.569634267061	0.043002917732064
0	2212	108.669634267061	0.043002917732064
0	2214	108.769634267061	0.043002917732064
0	2216	108.869634267061	0.043002917732064
0	2218	108.969634267061	0.043002917732064
0	2220	109.069634267061	0.043002917732064
0	2221	109.091343448	0.043002917732064
0	2222	109.169634267061	0.043002917732064
0	2224	109.269634267061	0.042572888554744
0	2224	109.269634267061	0.042572888554744
0	2226	109.369634267061	0.042572888554744
0	2228	109.469634267061	0.042572888554744
0	2230	109.569634267061	0.042572888554744
0	2231	109.60718887	0.042572888554744
0	2232	109.669634267061	0.042572888554744
0	2234	109.769634267061	0.042572888554744
0	2236	109.869634267061	0.042572888554744
0	2239	109.969634267061	0.042572888554744
0	2241	110.069634267061	0.042572888554744
0	2243	110.169634267061	0.042572888554744
0	2245	110.269634267061	0.042572888554744
0	2246	110.309460775	0.042572888554744
0	2247	110.369634267061	0.042572888554744
0	2249	110.469634267061	0.042572888554744
0	2251	110.569634267061	0.042572888554744
0	2253	110.669634267061	0.042572888554744
0	2255	110.769634267061	0.042572888554744
0	2257	110.807771633813	0.042572888554744
0	2259	110.907771633813	0.042572888554744
0	2259	110.972829328	0.042572888554744
0	2261	111.007771633813	0.042572888554744
0	2263	111.107771633813	0.042572888554744
0	2265	111.207771633813	0.042572888554744
0	2267	111.307771633813	0.042572888554744
0	2269	111.407771633813	0.042572888554744
0	2271	111.507771633813	0.042572888554744
0	2271	111.513122281	0.042572888554744
0	2273	111.607771633813	0.042572888554744
0	2275	111.707771633813	0.042572888554744
0	2277	111.807771633813	0.042572888554744
0	2279	111.907771633813	0.042572888554744
0	2279	111.953225326	0.042572888554744
0	2281	112.007771633813	0.042572888554744
0	2283	112.107771633813	0.042572888554744
0	2285	112.207771633813	0.042572888554744
0	2287	112.307771633813	0.042572888554744
0	2289	112.407771633813	0.042572888554744
0	2289	112.446209395	0.042572888554744
0	2291	112.507771633813	0.042572888554744
0	2293	112.607771633813	0.042572888554744
0	2295	112.707771633813	0.042572888554744
0	2297	112.807771633813	0.042572888554744
0	2299	112.907771633813	0.042572888554744
0	2299	112.927540144	0.042572888554744
0	2301	113.007771633813	0.042572888554744
0	2303	113.107771633813	0.042572888554744
0	2305	113.207771633813	0.042572888554744
0	2307	113.307771633813	0.042572888554744
0	2309	113.407771633813	0.042572888554744
0	2310	113.504693758	0.042572888554744
0	2311	113.507771633813	0.042572888554744
0	2313	113.607771633813	0.042572888554744
0	2315	113.707771633813	0.042572888554744
0	2317	113.807771633813	0.042572888554744
0	2319	113.907771633813	0.042572888554744
0	2320	114.002712793	0.042572888554744
0	2321	114.007771633813	0.042572888554744
0	2323	114.107771633813	0.042572888554744
0	2325	114.207771633813	0.042572888554744
0	2326	114.291971809	0.042572888554744
0	2327	114.307771633813	0.042572888554744
0	2329	114.407771633813	0.042572888554744
0	2331	114.507771633813	0.042572888554744
0	2333	114.607771633813	0.042572888554744
0	2335	114.707771633813	0.042572888554744
0	2335	114.752220775	0.042572888554744
0	2337	114.807771633813	0.042572888554744
0	2339	114.907771633813	0.042572888554744
0	2341	115.007771633813	0.042572888554744
0	2341	115.049788243	0.042572888554744
0	2343	115.107771633813	0.042572888554744
0	2345	115.207771633813	0.042572888554744
0	2347	115.307771633813	0.042572888554744
0	2349	115.407771633813	0.042572888554744
0	2351	115.507771633813	0.042572888554744
0	2352	115.588723222	0.042572888554744
0	2353	115.607771633813	0.042572888554744
0	2355	115.707771633813	0.042572888554744
0	2357	115.807771633813	0.042572888554744
0	2359	115.907771633813	0.042572888554744
0	2361	116.007771633813	0.042572888554744
0	2363	116.107771633813	0.042572888554744
0	2365	116.207771633813	0.042572888554744
0	2365	116.248101076	0.042572888554744
0	2367	116.307771633813	0.042572888554744
0	2369	116.407771633813	0.042572888554744
0	2371	116.507771633813	0.042572888554744
0	2373	116.607771633813	0.042572888554744
0	2375	116.707771633813	0.042572888554744
0	2377	116.807771633813	0.042572888554744
0	2377	116.881104043	0.042572888554744
0	2379	116.907771633813	0.042572888554744
0	2381	117.007771633813	0.042572888554744
0	2383	117.107771633813	0.042572888554744
0	2385	117.207771633813	0.042572888554744
0	2387	117.307771633813	0.042572888554744
0	2389	117.407771633813	0.042572888554744
0	2389	117.454718953	0.042572888554744
0	2391	117.507771633813	0.042572888554744
0	2393	117.607771633813	0.042572888554744
0	2395	117.707771633813	0.042572888554744
0	2397	117.807771633813	0.042572888554744
0	2399	117.907771633813	0.042572888554744
0	2399	117.941405203	0.042572888554744
0	2401	118.007771633813	0.042572888554744
0	2403	118.107771633813	0.042572888554744
0	2405	118.207771633813	0.042572888554744
0	2407	118.307771633813	0.042572888554744
0	2409	118.407771633813	0.042572888554744
0	2409	118.426386904	0.042572888554744
0	2411	118.507771633813	0.042572888554744
0	2413	118.607771633813	0.042572888554744
0	2415	118.707771633813	0.042572888554744
0	2417	118.807771633813	0.042572888554744
0	2419	118.907771633813	0.042572888554744
0	2419	118.914152098	0.042572888554744
0	2421	119.007771633813	0.042572888554744
0	2423	119.107771633813	0.042572888554744
0	2425	119.207771633813	0.042572888554744
0	2427	119.307771633813	0.042572888554744
0	2429	119.407771633813	0.042572888554744
0	2429	119.452408606	0.042572888554744
0	2431	119.507771633813	0.042572888554744
0	2433	119.607771633813	0.042572888554744
0	2435	119.707771633813	0.042572888554744
0	2437	119.807771633813	0.042572888554744
0	2439	119.907771633813	0.042572888554744
0	2441	120.007771633813	0.042572888554744
0	2441	120.011994703	0.042572888554744
0	2443	120.107771633813	0.042572888554744
0	2445	120.207771633813	0.042572888554744
0	2447	120.307771633813	0.042572888554744
0	2449	120.407771633813	0.042572888554744
0	2450	120.486856261	0.042572888554744
0	2451	120.507771633813	0.042572888554744
0	2453	120.607771633813	0.042572888554744
0	2455	120.707771633813	0.042572888554744
0	2457	120.807771633813	0.042572888554744
0	2459	120.907771633813	0.042572888554744
0	2459	120.942462628	0.042572888554744
0	2461	121.007771633813	0.042572888554744
0	2463	121.107771633813	0.042572888554744
0	2465	121.207771633813	0.042572888554744
0	2467	121.307771633813	0.042572888554744
0	2469	121.407771633813	0.042572888554744
0	2471	121.507771633813	0.042572888554744
0	2472	121.606309846	0.042572888554744
0	2473	121.607771633813	0.042572888554744
0	2475	121.707771633813	0.042572888554744
0	2477	121.807771633813	0.042572888554744
0	2479	121.907771633813	0.042572888554744
0	2481	122.007771633813	0.042572888554744
0	2481	122.044307254	0.042147159669196
0	2481	122.044307254	0.042147159669196
0	2483	122.107771633813	0.042147159669196
0	2485	122.207771633813	0.042147159669196
0	2487	122.307771633813	0.042147159669196
0	2489	122.407771633813	0.042147159669196
0	2490	122.4951001	0.042147159669196
0	2491	122.507771633813	0.042147159669196
0	2493	122.607771633813	0.042147159669196
0	2495	122.707771633813	0.042147159669196
0	2497	122.807771633813	0.042147159669196
0	2499	122.907771633813	0.042147159669196
0	2499	122.952307957	0.042147159669196
0	2501	123.007771633813	0.042147159669196
0	2503	123.107771633813	0.042147159669196
0	2505	123.207771633813	0.042147159669196
0	2507	123.307771633813	0.042147159669196
0	2508	123.40408021	0.042147159669196
0	2509	123.407771633813	0.042147159669196
0	2511	123.507771633813	0.042147159669196
0	2513	123.607771633813	0.042147159669196
0	2515	123.707771633813	0.042147159669196
0	2517	123.807771633813	0.042147159669196
0	2519	123.907771633813	0.042147159669196
0	2519	123.9253627	0.042147159669196
0	2521	124.007771633813	0.042147159669196
0	2523	124.107771633813	0.042147159669196
0	2525	124.207771633813	0.042147159669196
0	2527	124.307771633813	0.042147159669196
0	2529	124.407771633813	0.042147159669196
0	2529	124.411879456	0.042147159669196
0	2531	124.507771633813	0.042147159669196
0	2533	124.607771633813	0.042147159669196
0	2535	124.707771633813	0.042147159669196
0	2537	124.807771633813	0.042147159669196
0	2537	124.851094951	0.041725688072504
0	2537	124.851094951	0.041725688072504
0	2539	124.907771633813	0.041725688072504
0	2541	125.007771633813	0.041725688072504
0	2543	125.107771633813	0.041725688072504
0	2545	125.207771633813	0.041725688072504
0	2546	125.299762273	0.041725688072504
0	2547	125.307771633813	0.041725688072504
0	2549	125.407771633813	0.041725688072504
0	2551	125.507771633813	0.041725688072504
0	2553	125.607771633813	0.041725688072504
0	2555	125.707771633813	0.041725688072504
0	2555	125.767100944	0.041725688072504
0	2557	125.807771633813	0.041725688072504
0	2559	125.907771633813	0.041725688072504
0	2561	126.007771633813	0.041725688072504
0	2563	126.107771633813	0.041725688072504
0	2565	126.207771633813	0.041725688072504
0	2565	126.25306999	0.041308431191779
0	2565	126.25306999	0.041308431191779
0	2568	126.307771633813	0.041308431191779
0	2570	126.407771633813	0.041308431191779
0	2572	126.507771633813	0.041308431191779
0	2574	126.607771633813	0.041308431191779
0	2576	126.707771633813	0.041308431191779
0	2576	126.728755189	0.041308431191779
0	2578	126.807771633813	0.041308431191779
0	2580	126.907771633813	0.041308431191779
0	2582	127.007771633813	0.041308431191779
0	2584	127.107771633813	0.041308431191779
0	2586	127.207771633813	0.041308431191779
0	2587	127.297014784	0.041308431191779
0	2588	127.307771633813	0.041308431191779
0	2590	127.407771633813	0.041308431191779
0	2592	127.507771633813	0.041308431191779
0	2594	127.607771633813	0.040895346879862
0	2594	127.607771633813	0.040895346879862
0	2596	127.707771633813	0.040895346879862
0	2598	127.807771633813	0.040895346879862
0	2598	127.821927178	0.040895346879862
0	2600	127.907771633813	0.040895346879862
0	2602	128.007771633813	0.040895346879862
0	2604	128.107771633813	0.040895346879862
0	2606	128.207771633813	0.040895346879862
0	2608	128.307771633813	0.040895346879862
0	2608	128.352611044	0.040895346879862
0	2610	128.407771633813	0.040895346879862
0	2612	128.507771633813	0.040895346879862
0	2614	128.607771633813	0.040895346879862
0	2616	128.707771633813	0.040895346879862
0	2618	128.807771633813	0.040895346879862
0	2618	128.862595057	0.040895346879862
0	2620	128.907771633813	0.040895346879862
0	2622	129.007771633813	0.040486393411063
0	2622	129.007771633813	0.040486393411063
0	2624	129.107771633813	0.040486393411063
0	2626	129.207771633813	0.040486393411063
0	2628	129.307771633813	0.040486393411063
0	2628	129.39344737	0.040486393411063
0	2630	129.407771633813	0.040486393411063
0	2632	129.507771633813	0.040486393411063
0	2634	129.607771633813	0.040486393411063
0	2636	129.707771633813	0.040486393411063
0	2638	129.807771633813	0.040486393411063
0	2640	129.907771633813	0.040486393411063
0	2640	129.930805339	0.040486393411063
0	2642	130.007771633813	0.040486393411063
0	2644	130.107771633813	0.040486393411063
0	2646	130.207771633813	0.040486393411063
0	2647	130.271535418026	0.040486393411063
0	2648	130.27493706526	0.0405
0	2650	130.307771633813	0.040631338274212
0	2650	130.347592756	0.04079062276296
0	2652	130.39993706526	0.041
0	2653	130.407771633813	0.041031338274212
0	2655	130.507771633813	0.041431338274212
0	2656	130.52493706526	0.0415
0	2658	130.607771633813	0.041831338274212
0	2659	130.64993706526	0.042
0	2661	130.707771633813	0.042231338274212
0	2662	130.77493706526	0.0425
0	2664	130.807771633813	0.042631338274212
0	2664	130.81279858	0.04265144605896
0	2666	130.89993706526	0.043
0	2667	130.907771633813	0.043031338274212
0	2669	131.007771633813	0.043431338274212
0	2670	131.02493706526	0.0435
0	2672	131.107771633813	0.043831338274212
0	2673	131.14993706526	0.044
0	2675	131.207771633813	0.044231338274212
0	2676	131.27493706526	0.0445
0	2678	131.307771633813	0.044631338274212
0	2678	131.34991231	0.04479990097896
0	2680	131.39993706526	0.04455
0	2680	131.39993706526	0.04455
0	2681	131.407771633813	0.044581338274212
0	2683	131.507771633813	0.044981338274212
0	2684	131.51243706526	0.045
0	2686	131.607771633813	0.045381338274212
0	2687	131.63743706526	0.0455
0	2689	131.707771633813	0.045781338274212
0	2690	131.76243706526	0.046
0	2692	131.807771633813	0.046181338274212
0	2692	131.870587552	0.04643260194696
0	2693	131.88743706526	0.0465
0	2695	131.907771633813	0.046581338274212
0	2697	132.007771633813	0.046981338274212
0	2698	132.01243706526	0.047
0	2700	132.107771633813	0.047381338274212
0	2701	132.13743706526	0.0475
0	2703	132.207771633813	0.047781338274212
0	2704	132.26243706526	0.048
0	2706	132.307771633813	0.048181338274212
0	2707	132.38743706526	0.0485
0	2707	132.392706301	0.04852107694296
0	2709	132.407771633813	0.048581338274212
0	2711	132.507771633813	0.048981338274212
0	2712	132.51243706526	0.049
0	2714	132.607771633813	0.049381338274212
0	2715	132.63743706526	0.0495
0	2717	132.707771633813	0.049781338274212
0	2718	132.76243706526	0.05
0	2720	132.807771633813	0.05
0	2720	132.889260715	0.05
0	2722	132.907771633813	0.05
0	2724	133.007771633813	0.05
0	2726	133.107771633813	0.05
0	2728	133.207771633813	0.05
0	2730	133.307771633813	0.05
0	2732	133.407771633813	0.05
0	2732	133.441685041	0.05
0	2734	133.507771633813	0.05
0	2736	133.607771633813	0.05
0	2738	133.707771633813	0.05
0	2740	133.807771633813	0.0495
0	2740	133.807771633813	0.0495
0	2742	133.907771633813	0.0499
0	2744	134.007771633813	0.05
0	2744	134.015178799	0.05
0	2746	134.107771633813	0.05
0	2748	134.207771633813	0.05
0	2750	134.307771633813	0.05
0	2752	134.407771633813	0.05
0	2752	134.472010939	0.05
0	2754	134.507771633813	0.05
0	2756	134.607771633813	0.05
0	2758	134.707771633813	0.05
0	2758	134.765053177	0.05
0	2760	134.807771633813	0.05
0	2762	134.907771633813	0.05
0	2764	135.007771633813	0.05
0	2766	135.107771633813	0.05
0	2767	135.205012423	0.0495
0	2767	135.205012423	0.0495
0	2768	135.207771633813	0.049511036843252
0	2770	135.307771633813	0.049911036843252
0	2772	135.407771633813	0.05
0	2774	135.507771633813	0.05
0	2776	135.607771633813	0.05
0	2778	135.707771633813	0.05
0	2778	135.753198574	0.05
0	2780	135.807771633813	0.05
0	2782	135.907771633813	0.05
0	2784	136.007771633813	0.05
0	2786	136.107771633813	0.05
0	2788	136.207771633813	0.05
0	2790	136.307771633813	0.05
0	2790	136.315919311	0.05
0	2792	136.407771633813	0.05
0	2794	136.507771633813	0.05
0	2796	136.607771633813	0.0495
0	2796	136.607771633813	0.0495
0	2798	136.707771633813	0.0499
0	2800	136.807771633813	0.05
0	2800	136.895509351	0.05
0	2802	136.907771633813	0.05
0	2804	137.007771633813	0.05
0	2806	137.107771633813	0.05
0	2808	137.207771633813	0.05
0	2810	137.307771633813	0.05
0	2810	137.362616617	0.05
0	2812	137.407771633813	0.05
0	2814	137.507771633813	0.05
0	2816	137.607771633813	0.05
0	2818	137.707771633813	0.05
0	2820	137.807771633813	0.05
0	2821	137.896897615	0.05
0	2822	137.907771633813	0.05
0	2824	138.007771633813	0.0495
0	2824	138.007771633813	0.0495
0	2826	138.107771633813	0.0499
0	2828	138.207771633813	0.05
0	2830	138.307771633813	0.05
0	2832	138.407771633813	0.05
0	2832	138.410040154	0.05
0	2834	138.507771633813	0.05
0	2836	138.607771633813	0.05
0	2838	138.707771633813	0.05
0	2840	138.807771633813	0.05
0	2842	138.907771633813	0.05
0	2842	138.938020462	0.05
0	2844	139.007771633813	0.05
0	2846	139.107771633813	0.05
0	2848	139.207771633813	0.05
0	2849	139.2612724068	0.05
0	2851	139.3612724068	0.05
0	2852	139.45787755	0.05
0	2853	139.4612724068	0.05
0	2856	139.5612724068	0.05
0	2859	139.6612724068	0.05
0	2862	139.7612724068	0.05
0	2865	139.8612724068	0.05
0	2867	139.9612724068	0.05
0	2869	140.006602612	0.05
0	2870	140.0612724068	0.05
0	2873	140.1612724068	0.05
0	2876	140.2612724068	0.05
0	2879	140.3612724068	0.05
0	2881	140.4612724068	0.05
0	2882	140.494669921	0.05
0	2884	140.5612724068	0.05
0	2887	140.6612724068	0.05
0	2890	140.7612724068	0.05
0	2893	140.8612724068	0.05
0	2895	140.9612724068	0.05
0	2895	140.965561297	0.05
0	2898	141.0612724068	0.05
0	2900	141.1612724068	0.05
0	2902	141.2612724068	0.05
0	2904	141.3612724068	0.05
0	2906	141.4612724068	0.05
0	2908	141.5612724068	0.05
0	2909	141.64971424	0.05
0	2910	141.6612724068	0.05
0	2912	141.7612724068	0.0495
0	2912	141.7612724068	0.0495
0	2914	141.8612724068	0.0499
0	2916	141.9612724068	0.05
0	2918	142.0612724068	0.05
0	2920	142.1612724068	0.05
0	2921	142.210703026	0.05
0	2922	142.2612724068	0.05
0	2924	142.3612724068	0.05
0	2926	142.4612724068	0.05
0	2928	142.5612724068	0.05
0	2930	142.6612724068	0.05
0	2930	142.669727845	0.05
0	2932	142.7612724068	0.05
0	2934	142.8612724068	0.05
0	2936	142.9612724068	0.05
0	2938	143.0612724068	0.05
0	2940	143.1612724068	0.05
0	2940	143.173701646	0.05
0	2942	143.2612724068	0.05
0	2944	143.3612724068	0.05
0	2946	143.4612724068	0.05
0	2948	143.5612724068	0.05
0	2950	143.6612724068	0.05
0	2950	143.67282697	0.05
0	2952	143.7612724068	0.05
0	2954	143.8612724068	0.05
0	2956	143.9612724068	0.05
0	2958	144.0612724068	0.05
0	2960	144.1612724068	0.05
0	2960	144.184165882	0.05
0	2962	144.2612724068	0.05
0	2964	144.3612724068	0.05
0	2966	144.4612724068	0.05
0	2968	144.5612724068	0.05
0	2970	144.6612724068	0.0495
0	2970	144.6612724068	0.0495
0	2971	144.757985377	0.0498868518808
0	2972	144.7612724068	0.0499
0	2974	144.8612724068	0.05
0	2976	144.9612724068	0.05
0	2978	145.046722575736	0.05
0	2980	145.146722575736	0.05
0	2982	145.246722575736	0.05
0	2983	145.321673305	0.05
0	2984	145.346722575736	0.05
0	2986	145.446722575736	0.05
0	2988	145.546722575736	0.05
0	2990	145.646722575736	0.05
0	2992	145.746722575736	0.05
0	2994	145.846722575736	0.05
0	2994	145.854893908	0.05
0	2996	145.946722575736	0.05
0	2998	146.046722575736	0.0495
0	2998	146.046722575736	0.0495
0	3000	146.146722575736	0.0499
0	3002	146.246722575736	0.05
0	3004	146.346722575736	0.05
0	3005	146.440515901	0.05
0	3006	146.446722575736	0.05
0	3008	146.546722575736	0.05
0	3010	146.646722575736	0.05
0	3012	146.746722575736	0.05
0	3014	146.846722575736	0.05
0	3016	146.946722575736	0.05
0	3016	146.96416318	0.05
0	3018	147.046722575736	0.05
0	3020	147.146722575736	0.05
0	3022	147.246722575736	0.05
0	3024	147.346722575736	0.05
0	3026	147.446722575736	0.05
0	3028	147.546722575736	0.0495
0	3028	147.546722575736	0.0495
0	3029	147.603689959	0.049727869533056
0	3030	147.646722575736	0.0499
0	3032	147.746722575736	0.05
0	3034	147.846722575736	0.05
0	3036	147.946722575736	0.05
0	3038	148.046722575736	0.05
0	3040	148.146722575736	0.05
0	3042	148.246722575736	0.05
0	3042	148.293853159	0.05
0	3044	148.346722575736	0.05
0	3046	148.446722575736	0.05
0	3048	148.546722575736	0.05
0	3050	148.646722575736	0.05
0	3052	148.746722575736	0.05
0	3053	148.836498205	0.05
0	3055	148.846722575736	0.05
0	3057	148.946722575736	0.05
0	3059	149.046722575736	0.05
0	3061	149.146722575736	0.05
0	3063	149.246722575736	0.05
0	3064	149.339839087	0.05
0	3065	149.346722575736	0.05
0	3067	149.446722575736	0.05
0	3069	149.546722575736	0.05
0	3071	149.646722575736	0.05
0	3073	149.746722575736	0.05
0	3075	149.846722575736	0.05
0	3075	149.855402809	0.05
0	3077	149.946722575736	0.05
0	3079	150.046722575736	0.05
0	3081	150.146722575736	0.05
0	3083	150.246722575736	0.05
0	3084	150.317809351	0.05
0	3085	150.346722575736	0.05
0	3087	150.446722575736	0.05
0	3089	150.546722575736	0.05
0	3091	150.646722575736	0.05
0	3092	150.684232575416	0.05
0	3094	150.784232575416	0.05
0	3095	150.812245324	0.05
0	3096	150.884232575416	0.05
0	3098	150.984232575416	0.05
0	3100	151.084232575416	0.05
0	3102	151.184232575416	0.05
0	3104	151.284232575416	0.05
0	3106	151.384232575416	0.05
0	3106	151.392677746	0.05
0	3108	151.484232575416	0.05
0	3110	151.584232575416	0.05
0	3112	151.684232575416	0.05
0	3114	151.784232575416	0.0495
0	3114	151.784232575416	0.0495
0	3115	151.88419186	0.049899837138336
0	3116	151.884232575416	0.0499
0	3118	151.984232575416	0.05
0	3120	152.084232575416	0.05
0	3122	152.184232575416	0.05
0	3124	152.284232575416	0.05
0	3125	152.343650911	0.05
0	3126	152.384232575416	0.05
0	3128	152.484232575416	0.05
0	3130	152.584232575416	0.05
0	3132	152.684232575416	0.05
0	3134	152.784232575416	0.05
0	3135	152.813495746	0.05
0	3136	152.884232575416	0.05
0	3138	152.984232575416	0.05
0	3140	153.084232575416	0.05
0	3142	153.184232575416	0.0495
0	3142	153.184232575416	0.0495
0	3144	153.284232575416	0.0499
0	3145	153.352249459	0.05
0	3146	153.384232575416	0.05
0	3148	153.484232575416	0.05
0	3150	153.584232575416	0.05
0	3152	153.684232575416	0.05
0	3154	153.784232575416	0.05
0	3156	153.884232575416	0.05
0	3158	153.984232575416	0.05
0	3159	154.035997999	0.05
0	3160	154.084232575416	0.05
0	3162	154.184232575416	0.05
0	3164	154.284232575416	0.05
0	3166	154.384232575416	0.05
0	3168	154.484232575416	0.05
0	3169	154.578647305	0.05
0	3170	154.584232575416	0.0495
0	3170	154.584232575416	0.0495
0	3172	154.684232575416	0.0499
0	3174	154.784232575416	0.05
0	3176	154.884232575416	0.05
0	3178	154.984232575416	0.05
0	3180	155.084232575416	0.05
0	3182	155.184232575416	0.05
0	3183	155.275428544	0.05
0	3184	155.284232575416	0.05
0	3186	155.384232575416	0.05
0	3188	155.484232575416	0.05
0	3190	155.584232575416	0.05
0	3192	155.684232575416	0.05
0	3194	155.784232575416	0.05
0	3195	155.835880027	0.05
0	3196	155.884232575416	0.05
0	3198	155.984232575416	0.05
0	3200	156.084232575416	0.0495
0	3200	156.084232575416	0.0495
0	3202	156.184232575416	0.0499
0	3204	156.284232575416	0.05
0	3205	156.320462845	0.05
0	3206	156.384232575416	0.05
0	3208	156.484232575416	0.05
0	3210	156.584232575416	0.05
0	3212	156.684232575416	0.05
0	3213	156.715603501	0.05
0	3214	156.784232575416	0.05
0	3216	156.884232575416	0.05
0	3218	156.984232575416	0.05
0	3220	157.084232575416	0.05
0	3222	157.184232575416	0.05
0	3224	157.284232575416	0.05
0	3224	157.295316511	0.05
0	3226	157.384232575416	0.05
0	3228	157.467909477798	0.0495
0	3228	157.467909477798	0.0495
0	3229	157.484232575416	0.0495
0	3231	157.584232575416	0.0495
0	3233	157.684232575416	0.0495
0	3235	157.784232575416	0.0495
0	3237	157.884232575416	0.0495
0	3237	157.89325585	0.0495
0	3239	157.984232575416	0.0495
0	3241	158.084232575416	0.0495
0	3243	158.139101015823	0.0495
0	3245	158.239101015823	0.0495
0	3247	158.339101015823	0.0495
0	3249	158.439101015823	0.0495
0	3251	158.539101015823	0.0495
0	3251	158.550759736	0.0495
0	3253	158.639101015823	0.0495
0	3255	158.739101015823	0.0495
0	3257	158.839101015823	0.0495
0	3259	158.939101015823	0.0495
0	3260	159.034439026	0.0495
0	3261	159.039101015823	0.0495
0	3263	159.139101015823	0.0495
0	3265	159.239101015823	0.0495
0	3267	159.339101015823	0.0495
0	3269	159.439101015823	0.0495
0	3271	159.539101015823	0.0495
0	3271	159.584830099	0.0495
0	3273	159.639101015823	0.0495
0	3275	159.739101015823	0.0495
0	3277	159.839101015823	0.0495
0	3279	159.939101015823	0.0495
0	3281	160.039101015823	0.0495
0	3281	160.056577114	0.0495
0	3283	160.139101015823	0.0495
0	3285	160.239101015823	0.0495
0	3287	160.339101015823	0.0495
0	3289	160.439101015823	0.0495
0	3291	160.539101015823	0.0495
0	3293	160.639101015823	0.0495
0	3293	160.68018157	0.0495
0	3295	160.739101015823	0.0495
0	3297	160.839101015823	0.0495
0	3299	160.939101015823	0.0495
0	3301	161.039101015823	0.0495
0	3303	161.139101015823	0.0495
0	3303	161.183741749	0.0495
0	3305	161.239101015823	0.0495
0	3307	161.339101015823	0.0495
0	3309	161.439101015823	0.0495
0	3311	161.539101015823	0.0495
0	3313	161.639101015823	0.0495
0	3313	161.658025417	0.0495
0	3315	161.739101015823	0.0495
0	3317	161.839101015823	0.0495
0	3319	161.939101015823	0.0495
0	3321	162.039101015823	0.0495
0	3323	162.139101015823	0.0495
0	3325	162.239101015823	0.0495
0	3325	162.288896113	0.0495
0	3327	162.339101015823	0.0495
0	3329	162.439101015823	0.0495
0	3331	162.539101015823	0.0495
0	3333	162.639101015823	0.0495
0	3335	162.739101015823	0.0495
0	3337	162.839101015823	0.0495
0	3337	162.84784069	0.0495
0	3339	162.939101015823	0.0495
0	3341	163.039101015823	0.0495
0	3343	163.139101015823	0.0495
0	3343	163.145242885	0.049005
0	3343	163.145242885	0.049005
0	3344	163.181449852496	0.049005
0	3346	163.281449852496	0.049005
0	3348	163.381449852496	0.049005
0	3350	163.481449852496	0.049005
0	3351	163.567306237	0.049005
0	3352	163.581449852496	0.049005
0	3354	163.681449852496	0.049005
0	3356	163.781449852496	0.049005
0	3358	163.881449852496	0.049005
0	3360	163.981449852496	0.049005
0	3361	164.008734235	0.049005
0	3362	164.081449852496	0.049005
0	3364	164.181449852496	0.049005
0	3366	164.281449852496	0.049005
0	3368	164.381449852496	0.049005
0	3369	164.423335564	0.049005
0	3370	164.481449852496	0.04851495
0	3370	164.481449852496	0.04851495
0	3372	164.581449852496	0.04851495
0	3374	164.681449852496	0.04851495
0	3376	164.781449852496	0.04851495
0	3377	164.86207507	0.04851495
0	3378	164.881449852496	0.04851495
0	3380	164.981449852496	0.04851495
0	3382	165.081449852496	0.04851495
0	3384	165.181449852496	0.04851495
0	3386	165.281449852496	0.04851495
0	3387	165.354056254	0.04851495
0	3388	165.381449852496	0.04851495
0	3390	165.481449852496	0.04851495
0	3392	165.581449852496	0.04851495
0	3394	165.681449852496	0.04851495
0	3396	165.781449852496	0.04851495
0	3398	165.881449852496	0.04851495
0	3398	165.891617815	0.04851495
0	3400	165.981449852496	0.04851495
0	3402	166.081449852496	0.04851495
0	3404	166.181449852496	0.04851495
0	3406	166.281449852496	0.04851495
0	3407	166.367893876	0.04851495
0	3408	166.381449852496	0.04851495
0	3410	166.481449852496	0.04851495
0	3412	166.581449852496	0.04851495
0	3414	166.681449852496	0.04851495
0	3416	166.781449852496	0.04851495
0	3417	166.843841689	0.04851495
0	3418	166.881449852496	0.04851495
0	3420	166.981449852496	0.04851495
0	3422	167.081449852496	0.04851495
0	3424	167.181449852496	0.04851495
0	3426	167.281449852496	0.04851495
0	3427	167.320877368	0.0480298005
0	3427	167.320877368	0.0480298005
0	3428	167.381449852496	0.0480298005
0	3430	167.481449852496	0.0480298005
0	3432	167.581449852496	0.0480298005
0	3434	167.681449852496	0.0480298005
0	3436	167.781449852496	0.0480298005
0	3437	167.840651839	0.0480298005
0	3438	167.881449852496	0.0480298005
0	3440	167.981449852496	0.0480298005
0	3442	168.081449852496	0.0480298005
0	3444	168.181449852496	0.0480298005
0	3446	168.281449852496	0.0480298005
0	3448	168.381449852496	0.0480298005
0	3448	168.386271931	0.0480298005
0	3450	168.481449852496	0.0480298005
0	3452	168.581449852496	0.0480298005
0	3454	168.681449852496	0.0480298005
0	3456	168.781449852496	0.047549502495
0	3456	168.781449852496	0.047549502495
0	3457	168.870907354	0.047549502495
0	3458	168.881449852496	0.047549502495
0	3460	168.981449852496	0.047549502495
0	3462	169.081449852496	0.047549502495
0	3464	169.181449852496	0.047549502495
0	3466	169.281449852496	0.047549502495
0	3467	169.296396265	0.047549502495
0	3468	169.381449852496	0.047549502495
0	3470	169.401765462066	0.047549502495
0	3472	169.436943278313	0.047549502495
0	3474	169.501765462066	0.047808791230012
0	3475	169.549567654563	0.048
0	3477	169.601765462066	0.048208791230012
0	3478	169.674567654563	0.0485
0	3480	169.701765462066	0.048608791230012
0	3480	169.736493916	0.048747705045748
0	3482	169.799567654563	0.049
0	3483	169.801765462066	0.049008791230012
0	3485	169.901765462066	0.048914703317712
0	3485	169.901765462066	0.048914703317712
0	3486	169.924567654563	0.0495
0	3488	170.001765462066	0.049808791230012
0	3489	170.049567654563	0.05
0	3491	170.101765462066	0.05
0	3493	170.201765462066	0.05
0	3493	170.243742619	0.05
0	3495	170.301765462066	0.05
0	3497	170.401765462066	0.05
0	3499	170.501765462066	0.05
0	3501	170.601765462066	0.05
0	3503	170.701765462066	0.05
0	3505	170.801765462066	0.05
0	3507	170.901765462066	0.05
0	3507	170.98254601	0.05
0	3509	171.001765462066	0.05
0	3511	171.101765462066	0.05
0	3513	171.201765462066	0.05
0	3515	171.301765462066	0.0495
0	3515	171.301765462066	0.0495
0	3517	171.401765462066	0.0499
0	3519	171.501765462066	0.05
0	3519	171.528720721	0.05
0	3521	171.601765462066	0.05
0	3523	171.701765462066	0.05
0	3525	171.801765462066	0.05
0	3527	171.901765462066	0.05
0	3529	172.001765462066	0.05
0	3529	172.004752696	0.05
0	3531	172.101765462066	0.05
0	3533	172.201765462066	0.05
0	3535	172.301765462066	0.05
0	3537	172.401765462066	0.05
0	3539	172.501765462066	0.05
0	3539	172.546376923	0.05
0	3541	172.601765462066	0.05
0	3543	172.701765462066	0.0495
0	3543	172.701765462066	0.0495
0	3545	172.801765462066	0.0499
0	3547	172.901765462066	0.05
0	3549	173.001765462066	0.05
0	3551	173.101765462066	0.05
0	3553	173.201765462066	0.05
0	3553	173.230563376	0.05
0	3555	173.301765462066	0.05
0	3557	173.401765462066	0.05
0	3559	173.501765462066	0.05
0	3561	173.601765462066	0.05
0	3563	173.701765462066	0.05
0	3563	173.746066792	0.05
0	3565	173.801765462066	0.05
0	3567	173.901765462066	0.05
0	3569	174.001765462066	0.05
0	3571	174.101765462066	0.05
0	3573	174.201765462066	0.0495
0	3573	174.201765462066	0.0495
0	3573	174.224425738	0.049590641103736
0	3575	174.301765462066	0.0499
0	3577	174.401765462066	0.05
0	3579	174.501765462066	0.05
0	3581	174.601765462066	0.05
0	3583	174.701765462066	0.05
0	3585	174.801765462066	0.05
0	3586	174.900350737	0.05
0	3587	174.901765462066	0.05
0	3589	175.001765462066	0.05
0	3591	175.101765462066	0.05
0	3593	175.201765462066	0.05
0	3595	175.301765462066	0.05
0	3597	175.401765462066	0.05
0	3599	175.501765462066	0.05
0	3601	175.601765462066	0.05
0	3601	175.634118049	0.05
0	3603	175.701765462066	0.05
0	3605	175.801765462066	0.05
0	3607	175.901765462066	0.05
0	3609	176.001765462066	0.05
0	3611	176.101765462066	0.05
0	3613	176.201765462066	0.05
0	3615	176.301765462066	0.05
0	3615	176.370887104	0.05
0	3617	176.401765462066	0.05
0	3619	176.501765462066	0.05
0	3621	176.601765462066	0.05
0	3623	176.701765462066	0.05
0	3625	176.801765462066	0.05
0	3627	176.901765462066	0.05
0	3629	177.001765462066	0.05
0	3631	177.101765462066	0.05
0	3633	177.201765462066	0.0495
0	3633	177.201765462066	0.0495
0	3633	177.213453958	0.049546753983736
0	3635	177.301765462066	0.0499
0	3637	177.401765462066	0.05
0	3639	177.501765462066	0.05
0	3641	177.601765462066	0.05
0	3641	177.663159079	0.05
0	3643	177.701765462066	0.05
0	3645	177.801765462066	0.05
0	3647	177.901765462066	0.05
0	3649	178.001765462066	0.05
0	3651	178.101765462066	0.05
0	3651	178.176794728	0.05
0	3653	178.201765462066	0.05
0	3655	178.301765462066	0.05
0	3657	178.401765462066	0.05
0	3659	178.501765462066	0.05
0	3661	178.601765462066	0.0495
0	3661	178.601765462066	0.0495
0	3662	178.692878929	0.049864453867736
0	3663	178.701765462066	0.0499
0	3665	178.801765462066	0.05
0	3667	178.901765462066	0.05
0	3669	179.001765462066	0.05
0	3671	179.101765462066	0.05
0	3673	179.201765462066	0.05
0	3674	179.256338092	0.05
0	3675	179.301765462066	0.05
0	3677	179.401765462066	0.05
0	3679	179.501765462066	0.05
0	3681	179.601765462066	0.05
0	3683	179.701765462066	0.05
0	3685	179.801765462066	0.05
0	3687	179.901765462066	0.05
0	3688	179.979039967	0.05
0	3689	180.001765462066	0.0495
0	3689	180.001765462066	0.0495
0	3691	180.101765462066	0.0499
0	3693	180.201765462066	0.05
0	3695	180.301765462066	0.05
0	3697	180.401765462066	0.05
0	3699	180.501765462066	0.05
0	3701	180.601765462066	0.05
0	3702	180.628880416	0.05
0	3703	180.701765462066	0.05
0	3705	180.801765462066	0.05
0	3707	180.901765462066	0.05
0	3709	181.001765462066	0.05
0	3710	181.093394014	0.05
0	3711	181.101765462066	0.05
0	3713	181.201765462066	0.05
0	3715	181.301765462066	0.05
0	3717	181.401765462066	0.05
0	3719	181.501765462066	0.0495
0	3719	181.501765462066	0.0495
0	3720	181.585338334	0.049834291487736
0	3721	181.601765462066	0.0499
0	3723	181.701765462066	0.05
0	3725	181.801765462066	0.05
0	3727	181.901765462066	0.05
0	3729	182.001765462066	0.05
0	3730	182.048923996	0.05
0	3731	182.101765462066	0.05
0	3733	182.201765462066	0.05
0	3735	182.301765462066	0.05
0	3737	182.401765462066	0.05
0	3739	182.501765462066	0.05
0	3740	182.536233544	0.05
0	3741	182.601765462066	0.05
0	3743	182.701765462066	0.05
0	3745	182.801765462066	0.05
0	3747	182.901765462066	0.0495
0	3747	182.901765462066	0.0495
0	3749	183.001765462066	0.0499
0	3750	183.091089451	0.05
0	3751	183.101765462066	0.05
0	3753	183.201765462066	0.05
0	3755	183.301765462066	0.05
0	3757	183.401765462066	0.05
0	3759	183.501765462066	0.05
0	3761	183.601765462066	0.05
0	3761	183.617850736	0.05
0	3763	183.701765462066	0.05
0	3765	183.801765462066	0.05
0	3767	183.901765462066	0.05
0	3769	184.001765462066	0.05
0	3770	184.076367859	0.05
0	3771	184.101765462066	0.05
0	3773	184.201765462066	0.05
0	3775	184.301765462066	0.0495
0	3775	184.301765462066	0.0495
0	3778	184.401765462066	0.0499
0	3780	184.501765462066	0.05
0	3781	184.570844242	0.05
0	3782	184.601765462066	0.05
0	3784	184.701765462066	0.05
0	3786	184.801765462066	0.05
0	3788	184.901765462066	0.05
0	3790	185.001765462066	0.05
0	3792	185.101765462066	0.05
0	3792	185.15524726	0.05
0	3794	185.201765462066	0.05
0	3796	185.301765462066	0.05
0	3798	185.401765462066	0.05
0	3800	185.501765462066	0.05
0	3802	185.601765462066	0.05
0	3803	185.66217556	0.05
0	3804	185.701765462066	0.05
0	3806	185.801765462066	0.05
0	3808	185.901765462066	0.05
0	3810	186.001765462066	0.05
0	3812	186.101765462066	0.05
0	3813	186.176191615	0.05
0	3814	186.201765462066	0.05
0	3816	186.301765462066	0.05
0	3818	186.401765462066	0.05
0	3820	186.501765462066	0.05
0	3822	186.601765462066	0.05
0	3822	186.654617752	0.05
0	3824	186.701765462066	0.05
0	3826	186.801765462066	0.05
0	3828	186.901765462066	0.05
0	3830	187.001765462066	0.05
0	3832	187.101765462066	0.05
0	3832	187.125198721	0.0495
0	3832	187.125198721	0.0495
0	3834	187.201765462066	0.049806266964264
0	3836	187.301765462066	0.05
0	3838	187.401765462066	0.05
0	3840	187.501765462066	0.05
0	3841	187.572663463	0.05
0	3842	187.601765462066	0.05
0	3844	187.701765462066	0.05
0	3845	187.704655173293	0.05
0	3847	187.801765462066	0.05
0	3849	187.901765462066	0.05
0	3851	188.001765462066	0.05
0	3851	188.018580223	0.05
0	3853	188.101765462066	0.05
0	3855	188.201765462066	0.05
0	3857	188.301765462066	0.05
0	3859	188.401765462066	0.05
0	3860	188.485547158	0.0495
0	3860	188.485547158	0.0495
0	3861	188.501765462066	0.0495
0	3863	188.601765462066	0.0495
0	3865	188.701765462066	0.0495
0	3867	188.801765462066	0.0495
0	3869	188.901765462066	0.0495
0	3871	189.001765462066	0.0495
0	3871	189.042469918	0.0495
0	3873	189.101765462066	0.0495
0	3875	189.201765462066	0.0495
0	3877	189.301765462066	0.0495
0	3879	189.401765462066	0.0495
0	3881	189.501765462066	0.0495
0	3881	189.536000158	0.0495
0	3883	189.601765462066	0.0495
0	3885	189.701765462066	0.0495
0	3887	189.801765462066	0.0495
0	3889	189.901765462066	0.049005
0	3889	189.901765462066	0.049005
0	3891	190.001765462066	0.049005
0	3891	190.047771067	0.049005
0	3893	190.101765462066	0.049005
0	3895	190.201765462066	0.049005
0	3897	190.301765462066	0.049005
0	3899	190.401765462066	0.049005
0	3901	190.501765462066	0.049005
0	3902	190.595679388	0.049005
0	3903	190.601765462066	0.049005
0	3905	190.701765462066	0.049005
0	3907	190.801765462066	0.049005
0	3909	190.901765462066	0.049005
0	3911	191.001765462066	0.049005
0	3912	191.095999627	0.049005
0	3913	191.101765462066	0.049005
0	3915	191.201765462066	0.049005
0	3917	191.301765462066	0.04851495
0	3917	191.301765462066	0.04851495
0	3919	191.401765462066	0.04851495
0	3921	191.501765462066	0.04851495
0	3924	191.601765462066	0.04851495
0	3925	191.669324566	0.04851495
0	3926	191.701765462066	0.04851495
0	3928	191.801765462066	0.04851495
0	3930	191.901765462066	0.04851495
0	3932	192.001765462066	0.04851495
0	3934	192.101765462066	0.04851495
0	3936	192.201765462066	0.04851495
0	3938	192.301765462066	0.04851495
0	3938	192.339454243	0.04851495
0	3940	192.401765462066	0.04851495
0	3942	192.501765462066	0.04851495
0	3944	192.601765462066	0.04851495
0	3946	192.701765462066	0.04851495
0	3948	192.801765462066	0.04851495
0	3948	192.853452001	0.04851495
0	3950	192.901765462066	0.04851495
0	3952	193.001765462066	0.04851495
0	3954	193.101765462066	0.04851495
0	3956	193.201765462066	0.04851495
0	3958	193.301765462066	0.04851495
0	3958	193.364232325	0.04851495
0	3960	193.401765462066	0.04851495
0	3962	193.501765462066	0.04851495
0	3964	193.601765462066	0.04851495
0	3964	193.622660983	0.04851495
0	3966	193.701765462066	0.04851495
0	3968	193.801765462066	0.04851495
0	3970	193.901765462066	0.04851495
0	3972	194.001765462066	0.04851495
0	3972	194.064490081	0.04851495
0	3974	194.101765462066	0.04851495
0	3976	194.201765462066	0.04851495
0	3978	194.301765462066	0.04851495
0	3980	194.401765462066	0.04851495
0	3982	194.501765462066	0.04851495
0	3982	194.537971402	0.04851495
0	3984	194.601765462066	0.04851495
0	3986	194.701765462066	0.04851495
0	3988	194.801765462066	0.04851495
0	3990	194.901765462066	0.04851495
0	3992	195.001765462066	0.04851495
0	3994	195.101765462066	0.04851495
0	3994	195.103525408	0.04851495
0	3996	195.201765462066	0.04851495
0	3998	195.301765462066	0.04851495
0	4000	195.401765462066	0.04851495
0	4002	195.501765462066	0.04851495
0	4004	195.601765462066	0.04851495
0	4004	195.636279694	0.04851495
0	4006	195.701765462066	0.04851495
0	4008	195.801765462066	0.04851495
0	4010	195.901765462066	0.04851495
0	4012	196.001765462066	0.04851495
0	4014	196.101765462066	0.04851495
0	4014	196.14251551	0.04851495
0	4016	196.201765462066	0.04851495
0	4018	196.301765462066	0.04851495
0	4020	196.401765462066	0.04851495
0	4022	196.501765462066	0.04851495
0	4024	196.601765462066	0.04851495
0	4026	196.701765462066	0.04851495
0	4028	196.801765462066	0.04851495
0	4030	196.901765462066	0.04851495
0	4030	196.939520287	0.04851495
0	4032	197.001765462066	0.04851495
0	4034	197.101765462066	0.04851495
0	4036	197.201765462066	0.04851495
0	4038	197.301765462066	0.04851495
0	4040	197.401765462066	0.04851495
0	4042	197.501765462066	0.04851495
0	4043	197.576917177	0.04851495
0	4044	197.601765462066	0.04851495
0	4046	197.701765462066	0.04851495
0	4048	197.801765462066	0.04851495
0	4050	197.901765462066	0.04851495
0	4052	198.001765462066	0.04851495
0	4053	198.098777416	0.04851495
0	4054	198.101765462066	0.04851495
0	4056	198.201765462066	0.04851495
0	4058	198.301765462066	0.04851495
0	4060	198.401765462066	0.04851495
0	4062	198.501765462066	0.04851495
0	4064	198.601765462066	0.04851495
0	4064	198.63014932	0.04851495
0	4066	198.701765462066	0.04851495
0	4068	198.801765462066	0.04851495
0	4070	198.901765462066	0.04851495
0	4072	199.001765462066	0.04851495
0	4073	199.098146197	0.04851495
0	4074	199.101765462066	0.04851495
0	4076	199.201765462066	0.04851495
0	4078	199.301765462066	0.04851495
0	4080	199.401765462066	0.04851495
0	4082	199.501765462066	0.04851495
0	4084	199.601765462066	0.04851495
0	4084	199.629687292	0.04851495
0	4086	199.701765462066	0.04851495
0	4088	199.801765462066	0.04851495
0	4090	199.901765462066	0.04851495
0	4092	200.001765462066	0.04851495
0	4094	200.101765462066	0.04851495
0	4096	200.201765462066	0.04851495
0	4096	200.22018454	0.04851495
0	4098	200.301765462066	0.04851495
0	4100	200.401765462066	0.04851495
0	4102	200.501765462066	0.04851495
0	4104	200.601765462066	0.04851495
0	4106	200.701765462066	0.04851495
0	4107	200.747417248	0.04851495
0	4108	200.801765462066	0.04851495
0	4110	200.901765462066	0.04851495
0	4112	201.001765462066	0.04851495
0	4114	201.101765462066	0.04851495
0	4116	201.201765462066	0.04851495
0	4116	201.220746523	0.04851495
0	4118	201.301765462066	0.04851495
0	4120	201.401765462066	0.04851495
0	4122	201.501765462066	0.04851495
[...]
2	3817	186.358013779374	0.046137234721396
2	3819	186.458013779374	0.046137234721396
2	3821	186.558013779374	0.046137234721396
2	3822	186.654617752	0.046137234721396
2	3823	186.658013779374	0.046137234721396
2	3825	186.758013779374	0.046137234721396
2	3827	186.858013779374	0.046137234721396
2	3829	186.958013779374	0.046137234721396
2	3831	187.058013779374	0.046137234721396
2	3832	187.125198721	0.046137234721396
2	3833	187.158013779374	0.046137234721396
2	3835	187.258013779374	0.046137234721396
2	3837	187.358013779374	0.046137234721396
2	3839	187.458013779374	0.046137234721396
2	3841	187.558013779374	0.046137234721396
2	3841	187.572663463	0.046137234721396
2	3843	187.658013779374	0.046137234721396
2	3846	187.758013779374	0.046137234721396
2	3848	187.858013779374	0.046137234721396
2	3850	187.958013779374	0.046137234721396
2	3851	188.018580223	0.046137234721396
2	3852	188.058013779374	0.046137234721396
2	3854	188.158013779374	0.046137234721396
2	3856	188.258013779374	0.046137234721396
2	3858	188.358013779374	0.046137234721396
2	3860	188.458013779374	0.046137234721396
2	3860	188.485547158	0.046137234721396
2	3862	188.558013779374	0.046137234721396
2	3864	188.658013779374	0.046137234721396
2	3866	188.758013779374	0.046137234721396
2	3868	188.858013779374	0.046137234721396
2	3870	188.958013779374	0.046137234721396
2	3871	189.042469918	0.046137234721396
2	3872	189.058013779374	0.046137234721396
2	3874	189.158013779374	0.046137234721396
2	3876	189.258013779374	0.046137234721396
2	3878	189.358013779374	0.046137234721396
2	3880	189.458013779374	0.046137234721396
2	3881	189.536000158	0.046137234721396
2	3882	189.558013779374	0.046137234721396
2	3884	189.658013779374	0.046137234721396
2	3886	189.758013779374	0.046137234721396
2	3888	189.858013779374	0.046137234721396
2	3890	189.958013779374	0.046137234721396
2	3891	190.047771067	0.046137234721396
2	3892	190.058013779374	0.046137234721396
2	3894	190.158013779374	0.046137234721396
2	3896	190.258013779374	0.046137234721396
2	3898	190.358013779374	0.046137234721396
2	3900	190.458013779374	0.046137234721396
2	3902	190.558013779374	0.046137234721396
2	3902	190.595679388	0.046137234721396
2	3904	190.658013779374	0.046137234721396
2	3906	190.758013779374	0.046137234721396
2	3908	190.858013779374	0.046137234721396
2	3910	190.958013779374	0.046137234721396
2	3912	191.058013779374	0.046137234721396
2	3912	191.095999627	0.046137234721396
2	3914	191.158013779374	0.046137234721396
2	3916	191.258013779374	0.046137234721396
2	3918	191.358013779374	0.046137234721396
2	3920	191.458013779374	0.046137234721396
2	3922	191.558013779374	0.046137234721396
2	3923	191.564872071517	0.046137234721396
2	3925	191.664872071517	0.046137234721396
2	3925	191.669324566	0.046137234721396
2	3927	191.764872071517	0.046137234721396
2	3929	191.864872071517	0.046137234721396
2	3931	191.964872071517	0.046137234721396
2	3933	192.064872071517	0.046137234721396
2	3935	192.164872071517	0.046137234721396
2	3937	192.264872071517	0.046137234721396
2	3938	192.339454243	0.046137234721396
2	3939	192.364872071517	0.046137234721396
2	3941	192.464872071517	0.046137234721396
2	3943	192.564872071517	0.046137234721396
2	3945	192.664872071517	0.046137234721396
2	3947	192.764872071517	0.045675862374182
2	3947	192.764872071517	0.045675862374182
2	3948	192.853452001	0.045675862374182
2	3949	192.864872071517	0.045675862374182
2	3951	192.964872071517	0.045675862374182
2	3953	193.064872071517	0.045675862374182
2	3955	193.164872071517	0.045675862374182
2	3957	193.264872071517	0.045675862374182
2	3958	193.364232325	0.045675862374182
2	3959	193.364872071517	0.045675862374182
2	3961	193.464872071517	0.045675862374182
2	3963	193.564872071517	0.045675862374182
2	3964	193.622660983	0.045675862374182
2	3965	193.664872071517	0.045675862374182
2	3967	193.764872071517	0.045675862374182
2	3969	193.864872071517	0.045675862374182
2	3971	193.964872071517	0.045675862374182
2	3972	194.064490081	0.045675862374182
2	3973	194.064872071517	0.04521910375044
2	3973	194.064872071517	0.04521910375044
2	3975	194.164872071517	0.04521910375044
2	3977	194.264872071517	0.04521910375044
2	3979	194.364872071517	0.04521910375044
2	3981	194.464872071517	0.04521910375044
2	3982	194.537971402	0.04521910375044
2	3983	194.564872071517	0.04521910375044
2	3985	194.664872071517	0.04521910375044
2	3987	194.764872071517	0.04521910375044
2	3989	194.864872071517	0.04521910375044
2	3991	194.964872071517	0.04521910375044
2	3993	195.064872071517	0.04521910375044
2	3994	195.103525408	0.04521910375044
2	3995	195.164872071517	0.04521910375044
2	3997	195.264872071517	0.04521910375044
2	3999	195.364872071517	0.04521910375044
2	4001	195.464872071517	0.04521910375044
2	4003	195.564872071517	0.044766912712936
2	4003	195.564872071517	0.044766912712936
2	4004	195.636279694	0.044766912712936
2	4005	195.664872071517	0.044766912712936
2	4007	195.764872071517	0.044766912712936
2	4009	195.864872071517	0.044766912712936
2	4011	195.964872071517	0.044766912712936
2	4013	196.064872071517	0.044766912712936
2	4014	196.14251551	0.044766912712936
2	4015	196.164872071517	0.044766912712936
2	4017	196.264872071517	0.044766912712936
2	4019	196.364872071517	0.044766912712936
2	4021	196.464872071517	0.044766912712936
2	4023	196.564872071517	0.044766912712936
2	4025	196.664872071517	0.044766912712936
2	4027	196.764872071517	0.044766912712936
2	4029	196.864872071517	0.044766912712936
2	4030	196.939520287	0.044766912712936
2	4031	196.964872071517	0.044319243585806
2	4031	196.964872071517	0.044319243585806
2	4033	197.064872071517	0.044319243585806
2	4035	197.164872071517	0.044319243585806
2	4037	197.264872071517	0.044319243585806
2	4039	197.335828176276	0.044319243585806
2	4041	197.435828176276	0.044319243585806
2	4043	197.535828176276	0.044319243585806
2	4043	197.576917177	0.044319243585806
2	4045	197.635828176276	0.044319243585806
2	4047	197.735828176276	0.044319243585806
2	4049	197.835828176276	0.044319243585806
2	4051	197.935828176276	0.044319243585806
2	4053	198.035828176276	0.044319243585806
2	4053	198.098777416	0.044319243585806
2	4055	198.135828176276	0.044319243585806
2	4057	198.235828176276	0.044319243585806
2	4059	198.335828176276	0.044319243585806
2	4061	198.435828176276	0.043876051149948
2	4061	198.435828176276	0.043876051149948
2	4063	198.535828176276	0.043876051149948
2	4064	198.63014932	0.043876051149948
2	4065	198.635828176276	0.043876051149948
2	4067	198.735828176276	0.043876051149948
2	4069	198.835828176276	0.043876051149948
2	4071	198.935828176276	0.043876051149948
2	4073	199.035828176276	0.043876051149948
2	4073	199.098146197	0.043876051149948
2	4075	199.135828176276	0.043876051149948
2	4077	199.235828176276	0.043876051149948
2	4079	199.335828176276	0.043876051149948
2	4081	199.435828176276	0.043876051149948
2	4083	199.535828176276	0.043876051149948
2	4084	199.629687292	0.043876051149948
2	4085	199.635828176276	0.043876051149948
2	4087	199.735828176276	0.043876051149948
2	4089	199.835828176276	0.043437290638449
2	4089	199.835828176276	0.043437290638449
2	4091	199.935828176276	0.043437290638449
2	4093	200.035828176276	0.043437290638449
2	4095	200.135828176276	0.043437290638449
2	4096	200.22018454	0.043437290638449
2	4097	200.235828176276	0.043437290638449
2	4099	200.335828176276	0.043437290638449
2	4101	200.435828176276	0.043437290638449
2	4103	200.535828176276	0.043437290638449
2	4105	200.635828176276	0.043437290638449
2	4107	200.735828176276	0.043437290638449
2	4107	200.747417248	0.043437290638449
2	4109	200.835828176276	0.043437290638449
2	4111	200.935828176276	0.043437290638449
2	4113	201.035828176276	0.043437290638449
2	4115	201.135828176276	0.043437290638449
2	4116	201.220746523	0.043437290638449
2	4117	201.235828176276	0.043002917732064
2	4117	201.235828176276	0.043002917732064
2	4119	201.335828176276	0.043002917732064
2	4121	201.435828176276	0.043002917732064
2	4123	201.535828176276	0.043002917732064
2	4125	201.635828176276	0.043002917732064
2	4126	201.718741921	0.043002917732064
2	4127	201.735828176276	0.043002917732064
2	4129	201.835828176276	0.043002917732064
2	4131	201.935828176276	0.043002917732064
2	4133	202.035828176276	0.043002917732064
2	4135	202.135828176276	0.043002917732064
2	4135	202.179987046	0.043002917732064
2	4137	202.235828176276	0.043002917732064
2	4139	202.335828176276	0.043002917732064
2	4141	202.435828176276	0.043002917732064
2	4143	202.535828176276	0.043002917732064
2	4145	202.635828176276	0.043002917732064
2	4145	202.680575002	0.042572888554744
2	4145	202.680575002	0.042572888554744
2	4147	202.735828176276	0.042572888554744
2	4149	202.835828176276	0.042572888554744
2	4151	202.935828176276	0.042572888554744
2	4153	203.035828176276	0.042572888554744
2	4155	203.135828176276	0.042572888554744
2	4157	203.235828176276	0.042572888554744
2	4159	203.335828176276	0.042572888554744
2	4159	203.398332445	0.042572888554744
2	4161	203.435828176276	0.042572888554744
2	4163	203.535828176276	0.042572888554744
2	4165	203.635828176276	0.042572888554744
2	4167	203.735828176276	0.042572888554744
2	4169	203.835828176276	0.042572888554744
2	4170	203.918526421	0.042572888554744
2	4171	203.935828176276	0.042572888554744
2	4173	204.035828176276	0.042572888554744
2	4175	204.135828176276	0.042147159669196
2	4175	204.135828176276	0.042147159669196
2	4177	204.235828176276	0.042147159669196
2	4179	204.335828176276	0.042147159669196
2	4181	204.435828176276	0.042147159669196
2	4182	204.507794569	0.042147159669196
2	4183	204.535828176276	0.042147159669196
2	4185	204.635828176276	0.042147159669196
2	4187	204.735828176276	0.042147159669196
2	4189	204.835828176276	0.042147159669196
2	4191	204.935828176276	0.042147159669196
2	4193	205.035828176276	0.042147159669196
2	4193	205.073706292	0.042147159669196
2	4195	205.135828176276	0.042147159669196
2	4197	205.235828176276	0.042147159669196
2	4199	205.335828176276	0.042147159669196
2	4201	205.435828176276	0.042147159669196
2	4203	205.535828176276	0.042147159669196
2	4205	205.635828176276	0.041725688072504
2	4205	205.635828176276	0.041725688072504
2	4205	205.645258849	0.041725688072504
2	4207	205.735828176276	0.041725688072504
2	4209	205.835828176276	0.041725688072504
2	4211	205.935828176276	0.041725688072504
2	4213	206.035828176276	0.041725688072504
2	4214	206.117459485	0.041725688072504
2	4215	206.135828176276	0.041725688072504
2	4217	206.235828176276	0.041725688072504
2	4219	206.335828176276	0.041725688072504
2	4221	206.435828176276	0.041725688072504
2	4223	206.535828176276	0.041725688072504
2	4225	206.635828176276	0.041725688072504
2	4227	206.735828176276	0.041725688072504
2	4227	206.76072253	0.041725688072504
2	4230	206.835828176276	0.041725688072504
2	4232	206.935828176276	0.041725688072504
2	4235	207.035828176276	0.041725688072504
2	4238	207.108738719828	0.041725688072504
2	4241	207.208738719828	0.041725688072504
2	4241	207.273543559	0.041725688072504
2	4243	207.308738719828	0.041725688072504
2	4246	207.408738719828	0.041725688072504
2	4248	207.508738719828	0.041725688072504
2	4250	207.608738719828	0.041725688072504
2	4252	207.708738719828	0.041725688072504
2	4254	207.808738719828	0.041725688072504
2	4254	207.864376429	0.041725688072504
2	4256	207.908738719828	0.041725688072504
2	4258	208.008738719828	0.041725688072504
2	4260	208.108738719828	0.041725688072504
2	4262	208.208738719828	0.041725688072504
2	4264	208.308738719828	0.041725688072504
2	4266	208.408738719828	0.041725688072504
2	4266	208.476554017	0.041725688072504
2	4268	208.508738719828	0.041725688072504
2	4270	208.608738719828	0.041725688072504
2	4272	208.708738719828	0.041725688072504
2	4274	208.808738719828	0.041725688072504
2	4276	208.908738719828	0.041725688072504
2	4278	209.008738719828	0.041725688072504
2	4280	209.108738719828	0.041725688072504
2	4280	209.165962504	0.041725688072504
2	4282	209.208738719828	0.041725688072504
2	4284	209.308738719828	0.041725688072504
2	4286	209.408738719828	0.041725688072504
2	4288	209.508738719828	0.041725688072504
2	4290	209.608738719828	0.041725688072504
2	4292	209.708738719828	0.041725688072504
2	4294	209.808738719828	0.041725688072504
2	4294	209.860336585	0.041725688072504
2	4296	209.908738719828	0.041725688072504
2	4298	210.008738719828	0.041725688072504
2	4300	210.108738719828	0.041725688072504
2	4302	210.208738719828	0.041725688072504
2	4304	210.308738719828	0.041725688072504
2	4304	210.370607413	0.041725688072504
2	4306	210.408738719828	0.041725688072504
2	4308	210.508738719828	0.041725688072504
2	4310	210.608738719828	0.041725688072504
2	4312	210.708738719828	0.041725688072504
2	4314	210.808738719828	0.041725688072504
2	4316	210.908738719828	0.041725688072504
2	4316	210.927426955	0.041725688072504
2	4318	211.008738719828	0.041725688072504
2	4320	211.108738719828	0.041725688072504
2	4322	211.208738719828	0.041725688072504
2	4324	211.308738719828	0.041725688072504
2	4326	211.408738719828	0.041725688072504
2	4328	211.508738719828	0.041725688072504
2	4330	211.608738719828	0.041725688072504
2	4330	211.635238621	0.041725688072504
2	4332	211.708738719828	0.041725688072504
2	4334	211.808738719828	0.041725688072504
2	4336	211.908738719828	0.041725688072504
2	4338	212.008738719828	0.041725688072504
2	4340	212.108738719828	0.041725688072504
2	4340	212.171095132	0.041725688072504
2	4342	212.208738719828	0.041725688072504
2	4344	212.308738719828	0.041725688072504
2	4346	212.408738719828	0.041725688072504
2	4348	212.508738719828	0.041725688072504
2	4350	212.608738719828	0.041725688072504
2	4350	212.650442611	0.041725688072504
2	4351	212.671315616673	0.041725688072504
2	4354	212.771315616673	0.041725688072504
2	4356	212.871315616673	0.041725688072504
2	4358	212.971315616673	0.041725688072504
2	4360	213.071315616673	0.041725688072504
2	4362	213.171315616673	0.041725688072504
2	4363	213.255521434	0.041725688072504
2	4364	213.271315616673	0.041725688072504
2	4366	213.371315616673	0.041725688072504
2	4368	213.471315616673	0.041725688072504
2	4370	213.571315616673	0.041725688072504
2	4372	213.671315616673	0.041725688072504
2	4373	213.726469717	0.041725688072504
2	4374	213.771315616673	0.041725688072504
2	4376	213.871315616673	0.041725688072504
2	4378	213.971315616673	0.041725688072504
2	4379	214.022761483	0.041725688072504
2	4380	214.071315616673	0.041725688072504
2	4382	214.171315616673	0.041725688072504
2	4384	214.271315616673	0.041725688072504
2	4386	214.371315616673	0.041725688072504
2	4388	214.471315616673	0.041725688072504
2	4389	214.547574208	0.041725688072504
2	4390	214.571315616673	0.041725688072504
2	4392	214.671315616673	0.041725688072504
2	4394	214.771315616673	0.041725688072504
2	4396	214.871315616673	0.041725688072504
2	4398	214.971315616673	0.041725688072504
2	4399	215.040652255	0.041725688072504
2	4400	215.071315616673	0.041725688072504
2	4402	215.171315616673	0.041725688072504
2	4404	215.271315616673	0.041725688072504
2	4406	215.371315616673	0.041725688072504
2	4408	215.471315616673	0.041308431191779
2	4408	215.471315616673	0.041308431191779
2	4410	215.571315616673	0.041308431191779
2	4411	215.619355126	0.041308431191779
2	4412	215.671315616673	0.041308431191779
2	4414	215.771315616673	0.041308431191779
2	4416	215.871315616673	0.041308431191779
2	4418	215.971315616673	0.041308431191779
2	4420	216.071315616673	0.041308431191779
2	4421	216.131665426	0.041308431191779
2	4422	216.171315616673	0.041308431191779
2	4425	216.271315616673	0.041308431191779
2	4427	216.371315616673	0.041308431191779
2	4429	216.471315616673	0.041308431191779
2	4430	216.568970278	0.041308431191779
2	4431	216.571315616673	0.041308431191779
2	4433	216.671315616673	0.041308431191779
2	4435	216.771315616673	0.041308431191779
2	4437	216.871315616673	0.041308431191779
2	4439	216.971315616673	0.041308431191779
2	4441	217.071315616673	0.041308431191779
2	4442	217.161811744	0.041308431191779
2	4443	217.171315616673	0.041308431191779
2	4445	217.271315616673	0.041308431191779
2	4447	217.371315616673	0.041308431191779
2	4449	217.471315616673	0.041308431191779
2	4451	217.571315616673	0.041308431191779
2	4453	217.671315616673	0.041308431191779
2	4455	217.771315616673	0.041308431191779
2	4457	217.871315616673	0.041308431191779
2	4457	217.885254613	0.041308431191779
2	4459	217.971315616673	0.041308431191779
2	4461	218.071315616673	0.041308431191779
2	4463	218.171315616673	0.041308431191779
2	4465	218.271315616673	0.041308431191779
2	4467	218.371315616673	0.041308431191779
2	4468	218.433551527	0.041308431191779
2	4469	218.471315616673	0.041308431191779
2	4471	218.571315616673	0.041308431191779
2	4473	218.671315616673	0.041308431191779
2	4475	218.771315616673	0.041308431191779
2	4477	218.871315616673	0.041308431191779
2	4479	218.971315616673	0.041308431191779
2	4479	218.978258467	0.041308431191779
2	4481	219.071315616673	0.041308431191779
2	4483	219.171315616673	0.041308431191779
2	4485	219.271315616673	0.041308431191779
2	4487	219.371315616673	0.041308431191779
2	4488	219.467602144	0.041308431191779
2	4489	219.471315616673	0.041308431191779
2	4491	219.571315616673	0.041308431191779
2	4493	219.671315616673	0.041308431191779
2	4495	219.771315616673	0.041308431191779
2	4497	219.871315616673	0.041308431191779
2	4499	219.971315616673	0.041308431191779
2	4499	219.989374282	0.041308431191779
2	4501	220.071315616673	0.041308431191779
2	4503	220.171315616673	0.041308431191779
2	4505	220.271315616673	0.041308431191779
2	4507	220.371315616673	0.041308431191779
2	4509	220.471315616673	0.041308431191779
2	4509	220.4742457	0.041308431191779
2	4512	220.571315616673	0.041308431191779
2	4515	220.671315616673	0.041308431191779
2	4517	220.771315616673	0.041308431191779
2	4520	220.871315616673	0.041308431191779
2	4523	220.946598841	0.041308431191779
2	4524	220.971315616673	0.041308431191779
2	4526	221.071315616673	0.041308431191779
2	4528	221.171315616673	0.041308431191779
2	4530	221.271315616673	0.041308431191779
2	4532	221.371315616673	0.041308431191779
2	4533	221.42513476	0.041308431191779
2	4534	221.471315616673	0.041308431191779
2	4536	221.571315616673	0.041308431191779
2	4538	221.671315616673	0.041308431191779
2	4540	221.771315616673	0.041308431191779
2	4542	221.871315616673	0.041308431191779
2	4544	221.971315616673	0.041308431191779
2	4546	222.071315616673	0.041308431191779
2	4547	222.119042122	0.041308431191779
2	4548	222.171315616673	0.041308431191779
2	4550	222.271315616673	0.041308431191779
2	4552	222.371315616673	0.040895346879862
2	4552	222.371315616673	0.040895346879862
2	4554	222.471315616673	0.040895346879862
2	4556	222.571315616673	0.040895346879862
2	4557	222.602954191	0.040895346879862
2	4558	222.671315616673	0.040895346879862
2	4560	222.771315616673	0.040895346879862
2	4562	222.871315616673	0.040895346879862
2	4564	222.971315616673	0.040895346879862
2	4566	223.071315616673	0.040895346879862
2	4567	223.104802459	0.040895346879862
2	4568	223.171315616673	0.040895346879862
2	4570	223.271315616673	0.040895346879862
2	4572	223.371315616673	0.040895346879862
2	4574	223.471315616673	0.040895346879862
2	4576	223.571315616673	0.040895346879862
2	4577	223.610099335	0.040895346879862
2	4578	223.671315616673	0.040895346879862
2	4580	223.771315616673	0.040486393411063
2	4580	223.771315616673	0.040486393411063
2	4582	223.871315616673	0.040486393411063
2	4584	223.971315616673	0.040486393411063
2	4586	224.071315616673	0.040486393411063
2	4588	224.171315616673	0.040486393411063
2	4588	224.192618731	0.040486393411063
2	4588	224.201765462066	0.040486393411063
3	0	0	0.004
3	950	46.974101355068	0
3	2154	106.550808184856	0.004
3	2238	109.94879567886	0
3	2855	139.560189829035	0.004
3	3054	148.843866277873	0
4	0	0	0.004
4	461	23.08057828677	0
4	724	36.154769628164	0.004
4	1235	61.087242732334	0
4	1440	71.327921734366	0.004
4	1685	83.117814745624	0
4	2647	130.271535418026	0.004
4	3228	157.467909477798	0
4	3472	169.436943278313	0.004
4	3845	187.704655173293	0
4	4229	206.817084535629	0.004
4	4424	216.217916661651	0
4	4511	220.532589574849	0.004
4	4523	220.915642123682	0
5	0	0	0.004
5	950	46.974101355068	0
5	2154	106.550808184856	0.004
5	2238	109.94879567886	0
5	2855	139.560189829035	0.004
5	3054	148.843866277873	0

